/*---------------------------------------------------------------------------*\
  =========                 |
  \\      /  F ield         | OpenFOAM: The Open Source CFD Toolbox
   \\    /   O peration     | Website:  https://openfoam.org
    \\  /    A nd           | Version:  13
     \\/     M anipulation  |
\*---------------------------------------------------------------------------*/
Build  : 13
Exec   : renumberMesh -constant
Date   : Jun 21 2026
Time   : 07:38:08
Host   : "ip-10-255-0-177"
PID    : 6539
I/O    : uncollated
Case   : /home/ubuntu/AUDBF-ADOT/Final_ADOT_program/Aerodynamics_Simulation_0
nProcs : 1
sigFpe : Enabling floating point exception trapping (FOAM_SIGFPE).
fileModificationChecking : Monitoring run-time modified files using timeStampMaster (fileModificationSkew 10)
allowSystemOperations : Allowing user-supplied system call operations

// * * * * * * * * * * * * * * * * * * * * * * * * * * * * * * * * * * * * * //
Create time

Create mesh for time = constant

Mesh size: 1920
Before renumbering :
    band           : 240
    profile        : 407619

Using default renumberMethod.

Selecting renumberMethod CuthillMcKee

Reading geometric fields


After renumbering :
    band           : 105
    profile        : 148708

Writing mesh to "constant"

End

