/*---------------------------------------------------------------------------*\
  =========                 |
  \\      /  F ield         | OpenFOAM: The Open Source CFD Toolbox
   \\    /   O peration     | Website:  https://openfoam.org
    \\  /    A nd           | Version:  13
     \\/     M anipulation  |
\*---------------------------------------------------------------------------*/
Build  : 13
Exec   : surfaceSplitByTopology aircraftMesh/aircraftModelRaw.obj splitPatches/aircraftModelSplit.obj
Date   : Jun 21 2026
Time   : 07:34:32
Host   : "ip-10-255-0-177"
PID    : 6424
I/O    : uncollated
Case   : /home/ubuntu/AUDBF-ADOT/Final_ADOT_program/Aerodynamics_Simulation_0
nProcs : 1
sigFpe : Enabling floating point exception trapping (FOAM_SIGFPE).
fileModificationChecking : Monitoring run-time modified files using timeStampMaster (fileModificationSkew 10)
allowSystemOperations : Allowing user-supplied system call operations

// * * * * * * * * * * * * * * * * * * * * * * * * * * * * * * * * * * * * * //
Reading surface from "aircraftMesh/aircraftModelRaw.obj"
Splitting off baffle parts 
Writing new surface to "splitPatches/aircraftModelSplit.obj"
Splitting remaining multiply connected parts
    Writing multiple part 0 to "splitPatches/aircraftModelSplit_multiplePart_0.obj"
End

