/*---------------------------------------------------------------------------*\
  =========                 |
  \\      /  F ield         | OpenFOAM: The Open Source CFD Toolbox
   \\    /   O peration     | Website:  https://openfoam.org
    \\  /    A nd           | Version:  13
     \\/     M anipulation  |
\*---------------------------------------------------------------------------*/
Build  : 13
Exec   : surfaceFeatures
Date   : Jun 21 2026
Time   : 07:34:35
Host   : "ip-10-255-0-177"
PID    : 6442
I/O    : uncollated
Case   : /home/ubuntu/AUDBF-ADOT/Final_ADOT_program/Aerodynamics_Simulation_0
nProcs : 1
sigFpe : Enabling floating point exception trapping (FOAM_SIGFPE).
fileModificationChecking : Monitoring run-time modified files using timeStampMaster (fileModificationSkew 10)
allowSystemOperations : Allowing user-supplied system call operations

// * * * * * * * * * * * * * * * * * * * * * * * * * * * * * * * * * * * * * //
Create time

Reading "surfaceFeaturesDict"

Surface            : "aircraftModel.obj"


Feature line extraction is only valid on closed manifold surfaces.
Statistics:
Triangles    : 108524
Vertices     : 54254
Bounding Box : (-1.10102 -0.70932 -0.0634346) (0.817835 0.709436 0.0658711)


Constructing feature set from included angle 3.141592654
Selecting edges purely based on geometric tests: no
Removing all non-manifold edges (edges with > 2 connected faces) unless they cross multiple regions
Removing all open edges (edges with 1 connected face)

Initial feature set:
    feature points : 54254
    feature edges  : 162786
    of which
        region edges   : 0
        external edges : 100250
        internal edges : 62536


Final feature set:
points      : 54254
edges       : 162786
boundingBox : (-1.10102 -0.70932 -0.0634346) (0.817835 0.709436 0.0658711)
point classification :
    convex feature points          :      388
    concave feature points         :       44
    mixed feature points           :    53822
    other (non-feature) points     :        0
edge classification :
    external (convex angle) edges  :    27858
    internal (concave angle) edges :     6723
    flat region edges              :   128205
    open edges                     :        0
    multiply connected edges       :        0

Writing extendedFeatureEdgeMesh to "constant/extendedFeatureEdgeMesh/aircraftModel.extendedFeatureEdgeMesh"

Writing extendedEdgeMesh components to "/home/ubuntu/AUDBF-ADOT/Final_ADOT_program/Aerodynamics_Simulation_0/constant/extendedFeatureEdgeMesh/aircraftModel"

Writing featureEdgeMesh to "constant/geometry/aircraftModel.eMesh"

ExecutionTime = 0.927593 s  ClockTime = 1 s

End

