/*---------------------------------------------------------------------------*\
  =========                 |
  \\      /  F ield         | OpenFOAM: The Open Source CFD Toolbox
   \\    /   O peration     | Website:  https://openfoam.org
    \\  /    A nd           | Version:  13
     \\/     M anipulation  |
\*---------------------------------------------------------------------------*/
Build  : 13-cde978a97c93
Exec   : surfaceFeatures
Date   : Dec 23 2025
Time   : 11:01:51
Host   : "Laptopawelke"
PID    : 165165
I/O    : uncollated
Case   : /home/a1922573/ADOT/AUDBF-ADOT/Final_ADOT_program/Aerodynamics_Simulation
nProcs : 1
sigFpe : Enabling floating point exception trapping (FOAM_SIGFPE).
fileModificationChecking : Monitoring run-time modified files using timeStampMaster (fileModificationSkew 10)
allowSystemOperations : Allowing user-supplied system call operations

// * * * * * * * * * * * * * * * * * * * * * * * * * * * * * * * * * * * * * //
Create time

Reading "surfaceFeaturesDict"

Surface            : "aircraftModel.obj"


Feature line extraction is only valid on closed manifold surfaces.
Statistics:
Triangles    : 119412
Vertices     : 59710
Bounding Box : (-1.12625 -0.501238 -0.100009) (0.697321 0.501314 0.0935089)


Constructing feature set from included angle 3.141592654
Selecting edges purely based on geometric tests: no
Removing all non-manifold edges (edges with > 2 connected faces) unless they cross multiple regions
Removing all open edges (edges with 1 connected face)

Initial feature set:
    feature points : 59710
    feature edges  : 179118
    of which
        region edges   : 0
        external edges : 104796
        internal edges : 74322


Final feature set:
points      : 59710
edges       : 179118
boundingBox : (-1.12625 -0.501238 -0.100009) (0.697321 0.501314 0.0935089)
point classification :
    convex feature points          :      428
    concave feature points         :       98
    mixed feature points           :    59184
    other (non-feature) points     :        0
edge classification :
    external (convex angle) edges  :    26438
    internal (concave angle) edges :     8232
    flat region edges              :   144448
    open edges                     :        0
    multiply connected edges       :        0

Writing extendedFeatureEdgeMesh to "constant/extendedFeatureEdgeMesh/aircraftModel.extendedFeatureEdgeMesh"

Writing extendedEdgeMesh components to "/home/a1922573/ADOT/AUDBF-ADOT/Final_ADOT_program/Aerodynamics_Simulation/constant/extendedFeatureEdgeMesh/aircraftModel"

Writing featureEdgeMesh to "constant/geometry/aircraftModel.eMesh"

ExecutionTime = 1.078391 s  ClockTime = 1 s

End

