/*---------------------------------------------------------------------------*\
  =========                 |
  \\      /  F ield         | OpenFOAM: The Open Source CFD Toolbox
   \\    /   O peration     | Website:  https://openfoam.org
    \\  /    A nd           | Version:  13
     \\/     M anipulation  |
\*---------------------------------------------------------------------------*/
Build  : 13-cde978a97c93
Exec   : potentialFoam -writep -parallel
Date   : Dec 29 2025
Time   : 13:08:40
Host   : "Laptopawelke"
PID    : 4034
I/O    : uncollated
Case   : /home/a1922573/ADOT/AUDBF-ADOT/Final_ADOT_program/Aerodynamics_Simulation
nProcs : 4
Slaves : 
3
(
"Laptopawelke.4035"
"Laptopawelke.4036"
"Laptopawelke.4037"
)

Pstream initialised with:
    floatTransfer      : false
    nProcsSimpleSum    : 0
    commsType          : nonBlocking
    polling iterations : 0
sigFpe : Enabling floating point exception trapping (FOAM_SIGFPE).
fileModificationChecking : Monitoring run-time modified files using timeStampMaster (fileModificationSkew 10)
allowSystemOperations : Allowing user-supplied system call operations

// * * * * * * * * * * * * * * * * * * * * * * * * * * * * * * * * * * * * * //
Create time

Create mesh for time = 0

Reading velocity field U

Constructing pressure field p

Constructing velocity potential field Phi

No MRF models present


Calculating potential flow
GAMG:  Solving for Phi, Initial residual = 1, Final residual = 0.006671509832, No Iterations 5
GAMG:  Solving for Phi, Initial residual = 0.00571033576, Final residual = 2.048641464e-05, No Iterations 4
GAMG:  Solving for Phi, Initial residual = 0.0003420597984, Final residual = 2.94571847e-06, No Iterations 3
GAMG:  Solving for Phi, Initial residual = 2.864778364e-05, Final residual = 1.195887081e-07, No Iterations 4
GAMG:  Solving for Phi, Initial residual = 4.271503796e-06, Final residual = 5.030592807e-08, No Iterations 3
GAMG:  Solving for Phi, Initial residual = 1.02436225e-06, Final residual = 3.175063251e-08, No Iterations 2
GAMG:  Solving for Phi, Initial residual = 3.860206263e-07, Final residual = 5.255647925e-08, No Iterations 1
GAMG:  Solving for Phi, Initial residual = 2.044983342e-07, Final residual = 2.829457977e-08, No Iterations 1
GAMG:  Solving for Phi, Initial residual = 1.070967598e-07, Final residual = 1.86102735e-08, No Iterations 1
GAMG:  Solving for Phi, Initial residual = 6.159705102e-08, Final residual = 6.159705102e-08, No Iterations 0
GAMG:  Solving for Phi, Initial residual = 6.159705102e-08, Final residual = 6.159705102e-08, No Iterations 0
GAMG:  Solving for Phi, Initial residual = 6.159705102e-08, Final residual = 6.159705102e-08, No Iterations 0
GAMG:  Solving for Phi, Initial residual = 6.159705102e-08, Final residual = 6.159705102e-08, No Iterations 0
GAMG:  Solving for Phi, Initial residual = 6.159705102e-08, Final residual = 6.159705102e-08, No Iterations 0
GAMG:  Solving for Phi, Initial residual = 6.159705102e-08, Final residual = 6.159705102e-08, No Iterations 0
GAMG:  Solving for Phi, Initial residual = 6.159705102e-08, Final residual = 6.159705102e-08, No Iterations 0
GAMG:  Solving for Phi, Initial residual = 6.159705102e-08, Final residual = 6.159705102e-08, No Iterations 0
GAMG:  Solving for Phi, Initial residual = 6.159705102e-08, Final residual = 6.159705102e-08, No Iterations 0
GAMG:  Solving for Phi, Initial residual = 6.159705102e-08, Final residual = 6.159705102e-08, No Iterations 0
GAMG:  Solving for Phi, Initial residual = 6.159705102e-08, Final residual = 6.159705102e-08, No Iterations 0
GAMG:  Solving for Phi, Initial residual = 6.159705102e-08, Final residual = 6.159705102e-08, No Iterations 0
Continuity error = 2.125847824e-05
Interpolated velocity error = 0.0003394754026

Calculating approximate pressure field
GAMG:  Solving for p, Initial residual = 1, Final residual = 0.003796040602, No Iterations 5
GAMG:  Solving for p, Initial residual = 0.006552660934, Final residual = 3.292256499e-05, No Iterations 4
GAMG:  Solving for p, Initial residual = 0.0003870633012, Final residual = 2.145584849e-06, No Iterations 4
GAMG:  Solving for p, Initial residual = 3.526342751e-05, Final residual = 3.452990765e-07, No Iterations 3
GAMG:  Solving for p, Initial residual = 4.957432475e-06, Final residual = 8.302241114e-08, No Iterations 3
GAMG:  Solving for p, Initial residual = 1.17579899e-06, Final residual = 3.751011066e-08, No Iterations 2
GAMG:  Solving for p, Initial residual = 3.914578881e-07, Final residual = 5.590039512e-08, No Iterations 1
GAMG:  Solving for p, Initial residual = 1.945890346e-07, Final residual = 2.970033106e-08, No Iterations 1
GAMG:  Solving for p, Initial residual = 9.730046819e-08, Final residual = 9.730046819e-08, No Iterations 0
GAMG:  Solving for p, Initial residual = 9.730046819e-08, Final residual = 9.730046819e-08, No Iterations 0
GAMG:  Solving for p, Initial residual = 9.730046819e-08, Final residual = 9.730046819e-08, No Iterations 0
GAMG:  Solving for p, Initial residual = 9.730046819e-08, Final residual = 9.730046819e-08, No Iterations 0
GAMG:  Solving for p, Initial residual = 9.730046819e-08, Final residual = 9.730046819e-08, No Iterations 0
GAMG:  Solving for p, Initial residual = 9.730046819e-08, Final residual = 9.730046819e-08, No Iterations 0
GAMG:  Solving for p, Initial residual = 9.730046819e-08, Final residual = 9.730046819e-08, No Iterations 0
GAMG:  Solving for p, Initial residual = 9.730046819e-08, Final residual = 9.730046819e-08, No Iterations 0
GAMG:  Solving for p, Initial residual = 9.730046819e-08, Final residual = 9.730046819e-08, No Iterations 0
GAMG:  Solving for p, Initial residual = 9.730046819e-08, Final residual = 9.730046819e-08, No Iterations 0
GAMG:  Solving for p, Initial residual = 9.730046819e-08, Final residual = 9.730046819e-08, No Iterations 0
GAMG:  Solving for p, Initial residual = 9.730046819e-08, Final residual = 9.730046819e-08, No Iterations 0
GAMG:  Solving for p, Initial residual = 9.730046819e-08, Final residual = 9.730046819e-08, No Iterations 0
ExecutionTime = 2.464199 s  ClockTime = 3 s

End

Finalising parallel run
