/*---------------------------------------------------------------------------*\
  =========                 |
  \\      /  F ield         | OpenFOAM: The Open Source CFD Toolbox
   \\    /   O peration     | Website:  https://openfoam.org
    \\  /    A nd           | Version:  13
     \\/     M anipulation  |
\*---------------------------------------------------------------------------*/
Build  : 13-cde978a97c93
Exec   : foamRun -solver incompressibleFluid
Date   : Dec 24 2025
Time   : 10:44:41
Host   : "Laptopawelke"
PID    : 11650
I/O    : uncollated
Case   : /home/a1922573/ADOT/AUDBF-ADOT/Final_ADOT_program/Aerodynamics_Simulation
nProcs : 1
sigFpe : Enabling floating point exception trapping (FOAM_SIGFPE).
fileModificationChecking : Monitoring run-time modified files using timeStampMaster (fileModificationSkew 10)
allowSystemOperations : Allowing user-supplied system call operations

// * * * * * * * * * * * * * * * * * * * * * * * * * * * * * * * * * * * * * //
Create time

Create mesh for time = 0

Selecting solver incompressibleFluid
Selecting viscosity model Newtonian
Selecting turbulence model type RAS
    Selecting RAS turbulence model kOmegaSST
No MRF models present

Selecting patchDistMethod meshWave
Courant Number mean: 0.2090687508 max: 7.605128483

PIMPLE: No convergence criteria found


PIMPLE: No corrector convergence criteria found
        Calculations will do 3 corrections


PIMPLE: Operating solver in transient mode with 3 outer correctors



Starting time loop

volFieldValue tailUpstreamVelocity read:
    number of cells = 1345
    volume = 0.0004945014852
    operation = volAverage

volFieldValue tailUpstreamVelocity write:
    volAverage(upstreamTailZone) of magU = 5.309186107

Courant Number mean: 0.2090687508 max: 7.605128483
Time = 0.001s

PIMPLE: Iteration 1
smoothSolver:  Solving for Ux, Initial residual = 0.125852442, Final residual = 0.0006300791837, No Iterations 1
smoothSolver:  Solving for Uy, Initial residual = 0.09174390952, Final residual = 0.0005046371462, No Iterations 1
smoothSolver:  Solving for Uz, Initial residual = 0.1530353721, Final residual = 0.000392175692, No Iterations 1
GAMG:  Solving for p, Initial residual = 0.1133923844, Final residual = 0.0006425950574, No Iterations 5
GAMG:  Solving for p, Initial residual = 0.02159978089, Final residual = 0.0001046615503, No Iterations 4
GAMG:  Solving for p, Initial residual = 0.001477868112, Final residual = 6.715052214e-06, No Iterations 4
time step continuity errors : sum local = 1.290692159e-07, global = 3.320806388e-09
GAMG:  Solving for p, Initial residual = 0.1101690904, Final residual = 0.000588525288, No Iterations 5
GAMG:  Solving for p, Initial residual = 0.01366230945, Final residual = 7.125487353e-05, No Iterations 4
GAMG:  Solving for p, Initial residual = 0.0009167940753, Final residual = 8.613844663e-08, No Iterations 9
time step continuity errors : sum local = 1.767357634e-09, global = 5.444769288e-10
PIMPLE: Iteration 2
smoothSolver:  Solving for Ux, Initial residual = 0.03608644509, Final residual = 0.0002728121925, No Iterations 1
smoothSolver:  Solving for Uy, Initial residual = 0.03265575369, Final residual = 0.0002990180085, No Iterations 1
smoothSolver:  Solving for Uz, Initial residual = 0.04773557284, Final residual = 0.0001811220443, No Iterations 1
GAMG:  Solving for p, Initial residual = 0.1339192335, Final residual = 0.0008023228354, No Iterations 5
GAMG:  Solving for p, Initial residual = 0.02942770484, Final residual = 0.0001425626323, No Iterations 4
GAMG:  Solving for p, Initial residual = 0.001863335122, Final residual = 9.315197203e-06, No Iterations 4
time step continuity errors : sum local = 1.335195383e-07, global = 8.248486595e-10
GAMG:  Solving for p, Initial residual = 0.1266934593, Final residual = 0.0007134139408, No Iterations 5
GAMG:  Solving for p, Initial residual = 0.02130222846, Final residual = 0.0001045518492, No Iterations 4
GAMG:  Solving for p, Initial residual = 0.001345589632, Final residual = 5.821709989e-08, No Iterations 10
time step continuity errors : sum local = 7.550909735e-10, global = 1.148763506e-11
PIMPLE: Iteration 3
smoothSolver:  Solving for Ux, Initial residual = 0.01796804929, Final residual = 3.209043425e-07, No Iterations 4
smoothSolver:  Solving for Uy, Initial residual = 0.0195470892, Final residual = 1.152992879e-07, No Iterations 4
smoothSolver:  Solving for Uz, Initial residual = 0.01969054652, Final residual = 1.195914444e-07, No Iterations 4
GAMG:  Solving for p, Initial residual = 0.09695496636, Final residual = 0.0004873509737, No Iterations 5
GAMG:  Solving for p, Initial residual = 0.009910977241, Final residual = 4.922412542e-05, No Iterations 4
GAMG:  Solving for p, Initial residual = 0.0006524541666, Final residual = 3.495066777e-06, No Iterations 4
time step continuity errors : sum local = 8.801585565e-08, global = 4.514540094e-10
GAMG:  Solving for p, Initial residual = 0.07659581978, Final residual = 0.0003323877653, No Iterations 5
GAMG:  Solving for p, Initial residual = 0.006587408397, Final residual = 3.092426457e-05, No Iterations 4
GAMG:  Solving for p, Initial residual = 0.0004128898522, Final residual = 8.477602908e-08, No Iterations 8
time step continuity errors : sum local = 2.13275893e-09, global = 1.244563706e-11, cumulative = 1.244563706e-11
smoothSolver:  Solving for omega, Initial residual = 0.003900490958, Final residual = 5.37599529e-07, No Iterations 5
smoothSolver:  Solving for k, Initial residual = 1, Final residual = 4.143735944e-07, No Iterations 11
ExecutionTime = 8.467057 s  ClockTime = 9 s

Courant Number mean: 0.2172106626 max: 6.791531405
Time = 0.002s

PIMPLE: Iteration 1
smoothSolver:  Solving for Ux, Initial residual = 0.06174329612, Final residual = 0.0005149747918, No Iterations 1
smoothSolver:  Solving for Uy, Initial residual = 0.05608686751, Final residual = 0.0004944331558, No Iterations 1
smoothSolver:  Solving for Uz, Initial residual = 0.07824167779, Final residual = 0.0003824340791, No Iterations 1
GAMG:  Solving for p, Initial residual = 0.1476326723, Final residual = 0.0006238367024, No Iterations 5
GAMG:  Solving for p, Initial residual = 0.01465652003, Final residual = 0.0001464800397, No Iterations 3
GAMG:  Solving for p, Initial residual = 0.0009063146508, Final residual = 5.083944416e-06, No Iterations 4
time step continuity errors : sum local = 8.908358991e-08, global = 1.961030074e-09
GAMG:  Solving for p, Initial residual = 0.1391123179, Final residual = 0.0005750609361, No Iterations 5
GAMG:  Solving for p, Initial residual = 0.01029706779, Final residual = 4.238538744e-05, No Iterations 4
GAMG:  Solving for p, Initial residual = 0.0006053888185, Final residual = 4.60718477e-08, No Iterations 9
time step continuity errors : sum local = 7.731263638e-10, global = 1.336825859e-11
PIMPLE: Iteration 2
smoothSolver:  Solving for Ux, Initial residual = 0.02201211654, Final residual = 0.0002561038845, No Iterations 1
smoothSolver:  Solving for Uy, Initial residual = 0.0236366126, Final residual = 0.0002919522417, No Iterations 1
smoothSolver:  Solving for Uz, Initial residual = 0.02899904969, Final residual = 0.0002273971438, No Iterations 1
GAMG:  Solving for p, Initial residual = 0.1622781482, Final residual = 0.0006568161815, No Iterations 5
GAMG:  Solving for p, Initial residual = 0.01034247205, Final residual = 4.385625721e-05, No Iterations 4
GAMG:  Solving for p, Initial residual = 0.0006106665005, Final residual = 2.7573511e-06, No Iterations 4
time step continuity errors : sum local = 5.203184917e-08, global = 1.335611997e-08
GAMG:  Solving for p, Initial residual = 0.1524571777, Final residual = 0.0006120539184, No Iterations 5
GAMG:  Solving for p, Initial residual = 0.007127406316, Final residual = 3.416703088e-05, No Iterations 4
GAMG:  Solving for p, Initial residual = 0.0004337528938, Final residual = 8.170760554e-08, No Iterations 8
time step continuity errors : sum local = 1.5014251e-09, global = 4.53860479e-10
PIMPLE: Iteration 3
smoothSolver:  Solving for Ux, Initial residual = 0.01639745949, Final residual = 2.687663092e-07, No Iterations 5
smoothSolver:  Solving for Uy, Initial residual = 0.01973518082, Final residual = 2.050502137e-07, No Iterations 5
smoothSolver:  Solving for Uz, Initial residual = 0.02072884813, Final residual = 2.043795691e-07, No Iterations 5
GAMG:  Solving for p, Initial residual = 0.108565509, Final residual = 0.001006950671, No Iterations 4
GAMG:  Solving for p, Initial residual = 0.006082685075, Final residual = 3.754539317e-05, No Iterations 4
GAMG:  Solving for p, Initial residual = 0.0004929946524, Final residual = 2.234610893e-06, No Iterations 4
time step continuity errors : sum local = 3.364064964e-08, global = 8.759523153e-09
GAMG:  Solving for p, Initial residual = 0.0834436098, Final residual = 0.0007027800208, No Iterations 4
GAMG:  Solving for p, Initial residual = 0.004105946804, Final residual = 2.525342549e-05, No Iterations 4
GAMG:  Solving for p, Initial residual = 0.0003226678605, Final residual = 5.711978105e-08, No Iterations 8
time step continuity errors : sum local = 8.518354691e-10, global = 2.597227025e-10, cumulative = 2.721683396e-10
smoothSolver:  Solving for omega, Initial residual = 0.004574741495, Final residual = 5.902076288e-07, No Iterations 5
smoothSolver:  Solving for k, Initial residual = 0.03819236861, Final residual = 3.90127305e-07, No Iterations 7
ExecutionTime = 12.949395 s  ClockTime = 14 s

Courant Number mean: 0.2256598432 max: 6.771029847
Time = 0.003s

PIMPLE: Iteration 1
smoothSolver:  Solving for Ux, Initial residual = 0.04889578053, Final residual = 0.0005549717481, No Iterations 1
smoothSolver:  Solving for Uy, Initial residual = 0.04346897261, Final residual = 0.0006067127164, No Iterations 1
smoothSolver:  Solving for Uz, Initial residual = 0.04821464277, Final residual = 0.0004959212464, No Iterations 1
GAMG:  Solving for p, Initial residual = 0.1967643063, Final residual = 0.001920462065, No Iterations 4
GAMG:  Solving for p, Initial residual = 0.006175799852, Final residual = 4.113321501e-05, No Iterations 4
GAMG:  Solving for p, Initial residual = 0.0005821226596, Final residual = 2.468059594e-06, No Iterations 4
time step continuity errors : sum local = 3.533425984e-08, global = 2.770228635e-10
GAMG:  Solving for p, Initial residual = 0.1489204793, Final residual = 0.001370923125, No Iterations 4
GAMG:  Solving for p, Initial residual = 0.004166746494, Final residual = 2.691255499e-05, No Iterations 4
GAMG:  Solving for p, Initial residual = 0.0003844884638, Final residual = 5.234023117e-08, No Iterations 8
time step continuity errors : sum local = 7.384663468e-10, global = 6.10046047e-12
PIMPLE: Iteration 2
smoothSolver:  Solving for Ux, Initial residual = 0.01936438365, Final residual = 0.0002634349209, No Iterations 1
smoothSolver:  Solving for Uy, Initial residual = 0.02090950057, Final residual = 0.0004320999049, No Iterations 1
smoothSolver:  Solving for Uz, Initial residual = 0.02213847872, Final residual = 0.0003685895829, No Iterations 1
GAMG:  Solving for p, Initial residual = 0.1961413554, Final residual = 0.00177804786, No Iterations 4
GAMG:  Solving for p, Initial residual = 0.003880744873, Final residual = 3.747761403e-05, No Iterations 4
GAMG:  Solving for p, Initial residual = 0.0004648841285, Final residual = 2.455306677e-06, No Iterations 4
time step continuity errors : sum local = 3.459569306e-08, global = 9.737102442e-09
GAMG:  Solving for p, Initial residual = 0.1356674316, Final residual = 0.001176107043, No Iterations 4
GAMG:  Solving for p, Initial residual = 0.002632177038, Final residual = 2.459611016e-05, No Iterations 4
GAMG:  Solving for p, Initial residual = 0.0003017877186, Final residual = 6.617382406e-08, No Iterations 8
time step continuity errors : sum local = 9.216256432e-10, global = 2.885960603e-10
PIMPLE: Iteration 3
smoothSolver:  Solving for Ux, Initial residual = 0.01434617025, Final residual = 3.849148609e-07, No Iterations 6
smoothSolver:  Solving for Uy, Initial residual = 0.02059225413, Final residual = 4.634762984e-07, No Iterations 6
smoothSolver:  Solving for Uz, Initial residual = 0.02150264018, Final residual = 3.930656463e-07, No Iterations 6
GAMG:  Solving for p, Initial residual = 0.1506602624, Final residual = 0.001060411868, No Iterations 4
GAMG:  Solving for p, Initial residual = 0.002112325721, Final residual = 1.903328109e-05, No Iterations 4
GAMG:  Solving for p, Initial residual = 0.0003491841034, Final residual = 3.445053815e-06, No Iterations 3
time step continuity errors : sum local = 6.139563676e-08, global = -4.733015496e-10
GAMG:  Solving for p, Initial residual = 0.09798030207, Final residual = 0.0006450582109, No Iterations 4
GAMG:  Solving for p, Initial residual = 0.001309724059, Final residual = 1.14564959e-05, No Iterations 4
GAMG:  Solving for p, Initial residual = 0.0002159911197, Final residual = 7.807580609e-08, No Iterations 7
time step continuity errors : sum local = 1.362547427e-09, global = 3.105376986e-11, cumulative = 3.032221095e-10
smoothSolver:  Solving for omega, Initial residual = 0.004526283288, Final residual = 7.765247413e-07, No Iterations 5
smoothSolver:  Solving for k, Initial residual = 0.02027587512, Final residual = 9.013151561e-07, No Iterations 6
ExecutionTime = 17.534011 s  ClockTime = 17 s

Courant Number mean: 0.2372439504 max: 9.030195406
Time = 0.004s

PIMPLE: Iteration 1
smoothSolver:  Solving for Ux, Initial residual = 0.04280895079, Final residual = 0.0005427560907, No Iterations 1
smoothSolver:  Solving for Uy, Initial residual = 0.0392428461, Final residual = 0.0008286939207, No Iterations 1
smoothSolver:  Solving for Uz, Initial residual = 0.0397102619, Final residual = 0.0007424308678, No Iterations 1
GAMG:  Solving for p, Initial residual = 0.2002490962, Final residual = 0.001276175479, No Iterations 4
GAMG:  Solving for p, Initial residual = 0.002665453792, Final residual = 2.096287577e-05, No Iterations 4
GAMG:  Solving for p, Initial residual = 0.0003284676174, Final residual = 2.706555733e-06, No Iterations 3
time step continuity errors : sum local = 4.17449916e-08, global = -1.742297562e-09
GAMG:  Solving for p, Initial residual = 0.1297188978, Final residual = 0.001043443037, No Iterations 4
GAMG:  Solving for p, Initial residual = 0.002450861229, Final residual = 1.188144379e-05, No Iterations 4
GAMG:  Solving for p, Initial residual = 0.0003167828206, Final residual = 4.394548358e-08, No Iterations 7
time step continuity errors : sum local = 7.034593205e-10, global = -1.087102676e-10
PIMPLE: Iteration 2
smoothSolver:  Solving for Ux, Initial residual = 0.01719825227, Final residual = 0.0002633318939, No Iterations 1
smoothSolver:  Solving for Uy, Initial residual = 0.02004471248, Final residual = 0.0006212274365, No Iterations 1
smoothSolver:  Solving for Uz, Initial residual = 0.02033259866, Final residual = 0.0005684220699, No Iterations 1
GAMG:  Solving for p, Initial residual = 0.1796281555, Final residual = 0.001107184767, No Iterations 4
GAMG:  Solving for p, Initial residual = 0.002099925731, Final residual = 1.749602232e-05, No Iterations 4
GAMG:  Solving for p, Initial residual = 0.0003229417731, Final residual = 3.054530962e-06, No Iterations 3
time step continuity errors : sum local = 5.187942125e-08, global = -9.526740339e-09
GAMG:  Solving for p, Initial residual = 0.1144122855, Final residual = 0.0009682115964, No Iterations 4
GAMG:  Solving for p, Initial residual = 0.002314582602, Final residual = 2.003140394e-05, No Iterations 4
GAMG:  Solving for p, Initial residual = 0.000220012814, Final residual = 3.676692695e-08, No Iterations 8
time step continuity errors : sum local = 6.511521294e-10, global = -1.713720325e-10
PIMPLE: Iteration 3
smoothSolver:  Solving for Ux, Initial residual = 0.01335517925, Final residual = 5.272223038e-07, No Iterations 7
smoothSolver:  Solving for Uy, Initial residual = 0.02216310177, Final residual = 5.906279985e-07, No Iterations 7
smoothSolver:  Solving for Uz, Initial residual = 0.02195542635, Final residual = 4.055501715e-07, No Iterations 7
GAMG:  Solving for p, Initial residual = 0.1640541396, Final residual = 0.00147318364, No Iterations 4
GAMG:  Solving for p, Initial residual = 0.00256903584, Final residual = 2.205054666e-05, No Iterations 4
GAMG:  Solving for p, Initial residual = 0.0004623491303, Final residual = 3.999693452e-06, No Iterations 3
time step continuity errors : sum local = 8.289532602e-08, global = -6.231619962e-09
GAMG:  Solving for p, Initial residual = 0.1080945638, Final residual = 0.0003868320034, No Iterations 5
GAMG:  Solving for p, Initial residual = 0.001669631108, Final residual = 9.374355968e-06, No Iterations 4
GAMG:  Solving for p, Initial residual = 0.0001543187069, Final residual = 4.196580157e-08, No Iterations 7
time step continuity errors : sum local = 9.020806628e-10, global = -2.155403542e-10, cumulative = 8.768175522e-11
smoothSolver:  Solving for omega, Initial residual = 0.003858737737, Final residual = 4.120602094e-07, No Iterations 6
smoothSolver:  Solving for k, Initial residual = 0.01421237331, Final residual = 9.232466322e-07, No Iterations 6
ExecutionTime = 22.138018 s  ClockTime = 22 s

Courant Number mean: 0.2519970384 max: 14.38863835
Time = 0.005s

PIMPLE: Iteration 1
smoothSolver:  Solving for Ux, Initial residual = 0.03801903274, Final residual = 0.0005322107497, No Iterations 1
smoothSolver:  Solving for Uy, Initial residual = 0.03465866027, Final residual = 0.001246709546, No Iterations 1
smoothSolver:  Solving for Uz, Initial residual = 0.03392501409, Final residual = 0.001180419904, No Iterations 1
GAMG:  Solving for p, Initial residual = 0.1825459453, Final residual = 0.001044424984, No Iterations 4
GAMG:  Solving for p, Initial residual = 0.001687549368, Final residual = 4.619624482e-06, No Iterations 5
GAMG:  Solving for p, Initial residual = 0.0001873076727, Final residual = 1.304790409e-06, No Iterations 3
time step continuity errors : sum local = 2.272937536e-08, global = -1.04956908e-09
GAMG:  Solving for p, Initial residual = 0.1186351847, Final residual = 0.0009234573603, No Iterations 4
GAMG:  Solving for p, Initial residual = 0.001854813706, Final residual = 1.57138454e-05, No Iterations 4
GAMG:  Solving for p, Initial residual = 0.0003474641247, Final residual = 5.938094105e-08, No Iterations 7
time step continuity errors : sum local = 1.089699026e-09, global = -2.127048575e-10
PIMPLE: Iteration 2
smoothSolver:  Solving for Ux, Initial residual = 0.01561324641, Final residual = 0.0003268338721, No Iterations 1
smoothSolver:  Solving for Uy, Initial residual = 0.01885192532, Final residual = 0.0008832737494, No Iterations 1
smoothSolver:  Solving for Uz, Initial residual = 0.01795132711, Final residual = 0.0008453926761, No Iterations 1
GAMG:  Solving for p, Initial residual = 0.1729249383, Final residual = 0.00099275631, No Iterations 4
GAMG:  Solving for p, Initial residual = 0.001592015403, Final residual = 6.831563661e-06, No Iterations 5
GAMG:  Solving for p, Initial residual = 0.0002402883979, Final residual = 1.749733214e-06, No Iterations 3
time step continuity errors : sum local = 3.277538882e-08, global = -4.604581834e-09
GAMG:  Solving for p, Initial residual = 0.110552868, Final residual = 0.0008762405731, No Iterations 4
GAMG:  Solving for p, Initial residual = 0.001639025399, Final residual = 1.413417397e-05, No Iterations 4
GAMG:  Solving for p, Initial residual = 0.0003176499547, Final residual = 5.220628909e-08, No Iterations 7
time step continuity errors : sum local = 1.022520348e-09, global = -1.689242507e-10
PIMPLE: Iteration 3
smoothSolver:  Solving for Ux, Initial residual = 0.01356500761, Final residual = 3.242973474e-07, No Iterations 8
smoothSolver:  Solving for Uy, Initial residual = 0.02082705223, Final residual = 4.347996637e-07, No Iterations 8
smoothSolver:  Solving for Uz, Initial residual = 0.01963561965, Final residual = 8.109213234e-07, No Iterations 8
GAMG:  Solving for p, Initial residual = 0.1895212151, Final residual = 0.0009214961353, No Iterations 4
GAMG:  Solving for p, Initial residual = 0.001821070432, Final residual = 7.378908824e-06, No Iterations 5
GAMG:  Solving for p, Initial residual = 0.0002129455218, Final residual = 1.67459422e-06, No Iterations 3
time step continuity errors : sum local = 3.868660481e-08, global = -5.456713271e-09
GAMG:  Solving for p, Initial residual = 0.1237562737, Final residual = 0.0007184478552, No Iterations 4
GAMG:  Solving for p, Initial residual = 0.001272054775, Final residual = 1.159859851e-05, No Iterations 4
GAMG:  Solving for p, Initial residual = 0.0002623787489, Final residual = 4.545495379e-08, No Iterations 7
time step continuity errors : sum local = 1.086125811e-09, global = -8.354065783e-11, cumulative = 4.141097396e-12
smoothSolver:  Solving for omega, Initial residual = 0.003089920738, Final residual = 4.464075377e-07, No Iterations 6
smoothSolver:  Solving for k, Initial residual = 0.01123812059, Final residual = 3.801888027e-07, No Iterations 7
ExecutionTime = 26.998223 s  ClockTime = 27 s

Courant Number mean: 0.2636287191 max: 16.95360463
Time = 0.006s

PIMPLE: Iteration 1
smoothSolver:  Solving for Ux, Initial residual = 0.03425033172, Final residual = 0.0005833002346, No Iterations 1
smoothSolver:  Solving for Uy, Initial residual = 0.02676668847, Final residual = 0.0009869511811, No Iterations 1
smoothSolver:  Solving for Uz, Initial residual = 0.02470106715, Final residual = 0.0008979970038, No Iterations 1
GAMG:  Solving for p, Initial residual = 0.178616837, Final residual = 0.0009107635208, No Iterations 4
GAMG:  Solving for p, Initial residual = 0.001385095874, Final residual = 5.970578533e-06, No Iterations 5
GAMG:  Solving for p, Initial residual = 0.0002081361646, Final residual = 1.745105508e-06, No Iterations 3
time step continuity errors : sum local = 3.515627662e-08, global = -7.736617513e-10
GAMG:  Solving for p, Initial residual = 0.1152604588, Final residual = 0.0006722727552, No Iterations 4
GAMG:  Solving for p, Initial residual = 0.001087498362, Final residual = 4.783961605e-06, No Iterations 5
GAMG:  Solving for p, Initial residual = 0.0002597510936, Final residual = 9.485176452e-08, No Iterations 7
time step continuity errors : sum local = 1.990908339e-09, global = 1.250331087e-10
PIMPLE: Iteration 2
smoothSolver:  Solving for Ux, Initial residual = 0.01472098329, Final residual = 0.0003563229976, No Iterations 1
smoothSolver:  Solving for Uy, Initial residual = 0.01402882315, Final residual = 0.0005459519318, No Iterations 1
smoothSolver:  Solving for Uz, Initial residual = 0.01275928705, Final residual = 0.0005135379052, No Iterations 1
GAMG:  Solving for p, Initial residual = 0.1559187957, Final residual = 0.0007739901971, No Iterations 4
GAMG:  Solving for p, Initial residual = 0.001278664695, Final residual = 3.931969633e-06, No Iterations 5
GAMG:  Solving for p, Initial residual = 0.0001686735245, Final residual = 1.270545737e-06, No Iterations 3
time step continuity errors : sum local = 2.673361344e-08, global = -6.359935422e-10
GAMG:  Solving for p, Initial residual = 0.09954583216, Final residual = 0.0005778360247, No Iterations 4
GAMG:  Solving for p, Initial residual = 0.0008839950244, Final residual = 7.378363656e-06, No Iterations 5
GAMG:  Solving for p, Initial residual = 0.0002351613575, Final residual = 3.19937273e-08, No Iterations 8
time step continuity errors : sum local = 6.947204614e-10, global = -1.775267935e-10
PIMPLE: Iteration 3
smoothSolver:  Solving for Ux, Initial residual = 0.01251649848, Final residual = 7.437202924e-07, No Iterations 6
smoothSolver:  Solving for Uy, Initial residual = 0.01653200566, Final residual = 2.935855449e-07, No Iterations 8
smoothSolver:  Solving for Uz, Initial residual = 0.01564605732, Final residual = 4.628764453e-07, No Iterations 9
GAMG:  Solving for p, Initial residual = 0.148810024, Final residual = 0.000685289028, No Iterations 4
GAMG:  Solving for p, Initial residual = 0.001544243586, Final residual = 1.367071611e-05, No Iterations 4
GAMG:  Solving for p, Initial residual = 0.0001626769896, Final residual = 1.529254612e-06, No Iterations 3
time step continuity errors : sum local = 3.783057113e-08, global = 2.129789009e-09
GAMG:  Solving for p, Initial residual = 0.09806052751, Final residual = 0.0008922885096, No Iterations 3
GAMG:  Solving for p, Initial residual = 0.001183163432, Final residual = 1.08731142e-05, No Iterations 5
GAMG:  Solving for p, Initial residual = 0.0002569645087, Final residual = 4.358803745e-08, No Iterations 7
time step continuity errors : sum local = 1.117258947e-09, global = -1.793990104e-10, cumulative = -1.75257913e-10
smoothSolver:  Solving for omega, Initial residual = 0.002685620825, Final residual = 3.555518193e-07, No Iterations 6
smoothSolver:  Solving for k, Initial residual = 0.009466505405, Final residual = 5.464236465e-07, No Iterations 7
ExecutionTime = 31.901395 s  ClockTime = 32 s

Courant Number mean: 0.2723308302 max: 17.38712827
Time = 0.007s

PIMPLE: Iteration 1
smoothSolver:  Solving for Ux, Initial residual = 0.03138166815, Final residual = 0.0004945479476, No Iterations 1
smoothSolver:  Solving for Uy, Initial residual = 0.02302559867, Final residual = 0.0006695382866, No Iterations 1
smoothSolver:  Solving for Uz, Initial residual = 0.02090077259, Final residual = 0.0005071329344, No Iterations 1
GAMG:  Solving for p, Initial residual = 0.1344530332, Final residual = 0.0006480575392, No Iterations 4
GAMG:  Solving for p, Initial residual = 0.001196286824, Final residual = 4.423817139e-06, No Iterations 5
GAMG:  Solving for p, Initial residual = 0.0002323212878, Final residual = 1.766807615e-06, No Iterations 3
time step continuity errors : sum local = 3.764296878e-08, global = -3.969308929e-10
GAMG:  Solving for p, Initial residual = 0.08801229248, Final residual = 0.0004056762057, No Iterations 4
GAMG:  Solving for p, Initial residual = 0.000672937534, Final residual = 3.742968813e-06, No Iterations 5
GAMG:  Solving for p, Initial residual = 0.0001742317672, Final residual = 9.772067195e-08, No Iterations 6
time step continuity errors : sum local = 2.148889582e-09, global = -7.891683757e-10
PIMPLE: Iteration 2
smoothSolver:  Solving for Ux, Initial residual = 0.01348192211, Final residual = 0.000250871628, No Iterations 1
smoothSolver:  Solving for Uy, Initial residual = 0.01298722441, Final residual = 0.0004608335231, No Iterations 1
smoothSolver:  Solving for Uz, Initial residual = 0.01215171933, Final residual = 0.0003437959151, No Iterations 1
GAMG:  Solving for p, Initial residual = 0.1170855739, Final residual = 0.0005188282716, No Iterations 4
GAMG:  Solving for p, Initial residual = 0.001008040199, Final residual = 8.003445243e-06, No Iterations 4
GAMG:  Solving for p, Initial residual = 0.0001471864021, Final residual = 1.134627517e-06, No Iterations 3
time step continuity errors : sum local = 2.499051387e-08, global = -1.459630051e-10
GAMG:  Solving for p, Initial residual = 0.07689918897, Final residual = 0.0003523372156, No Iterations 4
GAMG:  Solving for p, Initial residual = 0.0005421871867, Final residual = 5.015404412e-06, No Iterations 5
GAMG:  Solving for p, Initial residual = 0.0001446046813, Final residual = 9.803009779e-08, No Iterations 6
time step continuity errors : sum local = 2.197058008e-09, global = -7.611730286e-10
PIMPLE: Iteration 3
smoothSolver:  Solving for Ux, Initial residual = 0.01173490298, Final residual = 8.331453361e-07, No Iterations 6
smoothSolver:  Solving for Uy, Initial residual = 0.01633671684, Final residual = 4.667019714e-07, No Iterations 8
smoothSolver:  Solving for Uz, Initial residual = 0.01500417156, Final residual = 3.900573549e-07, No Iterations 9
GAMG:  Solving for p, Initial residual = 0.1305982038, Final residual = 0.001090652448, No Iterations 3
GAMG:  Solving for p, Initial residual = 0.001788017104, Final residual = 5.831343032e-06, No Iterations 5
GAMG:  Solving for p, Initial residual = 0.0002017324105, Final residual = 1.406715641e-06, No Iterations 3
time step continuity errors : sum local = 3.636129673e-08, global = 2.666314157e-09
GAMG:  Solving for p, Initial residual = 0.08730827548, Final residual = 0.0006314136131, No Iterations 3
GAMG:  Solving for p, Initial residual = 0.0009458011395, Final residual = 5.020461229e-06, No Iterations 5
GAMG:  Solving for p, Initial residual = 0.0001695218088, Final residual = 7.013793405e-08, No Iterations 7
time step continuity errors : sum local = 1.862738327e-09, global = 1.645040476e-10, cumulative = -1.075386537e-11
smoothSolver:  Solving for omega, Initial residual = 0.002465040103, Final residual = 3.782751343e-07, No Iterations 6
smoothSolver:  Solving for k, Initial residual = 0.00820080259, Final residual = 3.996833314e-07, No Iterations 7
ExecutionTime = 36.361831 s  ClockTime = 37 s

Courant Number mean: 0.2810517564 max: 16.74502505
Time = 0.008s

PIMPLE: Iteration 1
smoothSolver:  Solving for Ux, Initial residual = 0.02884086806, Final residual = 0.0004098567664, No Iterations 1
smoothSolver:  Solving for Uy, Initial residual = 0.02507929528, Final residual = 0.0007037569718, No Iterations 1
smoothSolver:  Solving for Uz, Initial residual = 0.02341790937, Final residual = 0.0005642461371, No Iterations 1
GAMG:  Solving for p, Initial residual = 0.1156654781, Final residual = 0.0004305541812, No Iterations 4
GAMG:  Solving for p, Initial residual = 0.001000647036, Final residual = 6.310125237e-06, No Iterations 4
GAMG:  Solving for p, Initial residual = 0.0001366141232, Final residual = 1.133941348e-06, No Iterations 3
time step continuity errors : sum local = 2.534383983e-08, global = 4.471723475e-09
GAMG:  Solving for p, Initial residual = 0.08129037233, Final residual = 0.0007804435826, No Iterations 3
GAMG:  Solving for p, Initial residual = 0.00099027273, Final residual = 4.340663369e-06, No Iterations 5
GAMG:  Solving for p, Initial residual = 0.0001763873635, Final residual = 9.635177962e-08, No Iterations 6
time step continuity errors : sum local = 2.179018057e-09, global = -9.070365453e-10
PIMPLE: Iteration 2
smoothSolver:  Solving for Ux, Initial residual = 0.01278845082, Final residual = 0.0002395932715, No Iterations 1
smoothSolver:  Solving for Uy, Initial residual = 0.01360649078, Final residual = 0.0004730235442, No Iterations 1
smoothSolver:  Solving for Uz, Initial residual = 0.01309874045, Final residual = 0.0004033727414, No Iterations 1
GAMG:  Solving for p, Initial residual = 0.1065615826, Final residual = 0.0004063239401, No Iterations 4
GAMG:  Solving for p, Initial residual = 0.0008376955444, Final residual = 6.098472174e-06, No Iterations 4
GAMG:  Solving for p, Initial residual = 0.000109721145, Final residual = 9.434689585e-07, No Iterations 3
time step continuity errors : sum local = 2.202018692e-08, global = -3.413211638e-09
GAMG:  Solving for p, Initial residual = 0.0716315796, Final residual = 0.0007133876881, No Iterations 3
GAMG:  Solving for p, Initial residual = 0.0008639868559, Final residual = 4.512622063e-06, No Iterations 5
GAMG:  Solving for p, Initial residual = 0.0001443562874, Final residual = 9.653271953e-08, No Iterations 6
time step continuity errors : sum local = 2.242846476e-09, global = -9.684627749e-10
PIMPLE: Iteration 3
smoothSolver:  Solving for Ux, Initial residual = 0.01153304795, Final residual = 6.043344978e-07, No Iterations 6
smoothSolver:  Solving for Uy, Initial residual = 0.01640732764, Final residual = 7.672901967e-07, No Iterations 8
smoothSolver:  Solving for Uz, Initial residual = 0.01518843822, Final residual = 9.383139515e-07, No Iterations 8
GAMG:  Solving for p, Initial residual = 0.1317138456, Final residual = 0.001250660994, No Iterations 3
GAMG:  Solving for p, Initial residual = 0.001775606072, Final residual = 9.171830548e-06, No Iterations 5
GAMG:  Solving for p, Initial residual = 0.0001882099825, Final residual = 1.498373488e-06, No Iterations 3
time step continuity errors : sum local = 4.126988194e-08, global = -2.261995542e-09
GAMG:  Solving for p, Initial residual = 0.09018558491, Final residual = 0.0007897607734, No Iterations 3
GAMG:  Solving for p, Initial residual = 0.001117628902, Final residual = 6.790228661e-06, No Iterations 5
GAMG:  Solving for p, Initial residual = 0.0001734379239, Final residual = 8.981698927e-08, No Iterations 7
time step continuity errors : sum local = 2.484159892e-09, global = 1.80755604e-10, cumulative = 1.700017386e-10
smoothSolver:  Solving for omega, Initial residual = 0.002433412655, Final residual = 9.123135052e-07, No Iterations 5
smoothSolver:  Solving for k, Initial residual = 0.007290512434, Final residual = 3.995803038e-07, No Iterations 7
ExecutionTime = 40.558331 s  ClockTime = 41 s

Courant Number mean: 0.2904342784 max: 16.64668191
Time = 0.009s

PIMPLE: Iteration 1
smoothSolver:  Solving for Ux, Initial residual = 0.02676136803, Final residual = 0.0003786289098, No Iterations 1
smoothSolver:  Solving for Uy, Initial residual = 0.02567701404, Final residual = 0.0006871417373, No Iterations 1
smoothSolver:  Solving for Uz, Initial residual = 0.02492731828, Final residual = 0.0006243415667, No Iterations 1
GAMG:  Solving for p, Initial residual = 0.1167594254, Final residual = 0.001116108927, No Iterations 3
GAMG:  Solving for p, Initial residual = 0.001503333758, Final residual = 5.72601779e-06, No Iterations 5
GAMG:  Solving for p, Initial residual = 0.0001670376032, Final residual = 1.171637298e-06, No Iterations 3
time step continuity errors : sum local = 2.766993273e-08, global = -1.443029231e-09
GAMG:  Solving for p, Initial residual = 0.07978744225, Final residual = 0.0007156360898, No Iterations 3
GAMG:  Solving for p, Initial residual = 0.0009129149866, Final residual = 4.016867371e-06, No Iterations 5
GAMG:  Solving for p, Initial residual = 0.0001262498309, Final residual = 7.46028532e-08, No Iterations 6
time step continuity errors : sum local = 1.75063071e-09, global = -7.501200416e-10
PIMPLE: Iteration 2
smoothSolver:  Solving for Ux, Initial residual = 0.01216754745, Final residual = 0.0002226042639, No Iterations 1
smoothSolver:  Solving for Uy, Initial residual = 0.01363837047, Final residual = 0.0004792971948, No Iterations 1
smoothSolver:  Solving for Uz, Initial residual = 0.01297396273, Final residual = 0.0004007403363, No Iterations 1
GAMG:  Solving for p, Initial residual = 0.1054598209, Final residual = 0.0005008944895, No Iterations 4
GAMG:  Solving for p, Initial residual = 0.001018982546, Final residual = 7.698094114e-06, No Iterations 4
GAMG:  Solving for p, Initial residual = 0.0001294421255, Final residual = 1.129771509e-06, No Iterations 3
time step continuity errors : sum local = 2.739182293e-08, global = -1.430621697e-09
GAMG:  Solving for p, Initial residual = 0.06959020723, Final residual = 0.0003373681429, No Iterations 4
GAMG:  Solving for p, Initial residual = 0.0005511954142, Final residual = 3.124670552e-06, No Iterations 5
GAMG:  Solving for p, Initial residual = 9.870277178e-05, Final residual = 6.312723224e-08, No Iterations 6
time step continuity errors : sum local = 1.5290236e-09, global = 1.517135266e-11
PIMPLE: Iteration 3
smoothSolver:  Solving for Ux, Initial residual = 0.01102976957, Final residual = 5.75227251e-07, No Iterations 6
smoothSolver:  Solving for Uy, Initial residual = 0.01640310225, Final residual = 9.893847227e-07, No Iterations 8
smoothSolver:  Solving for Uz, Initial residual = 0.01444554351, Final residual = 6.076540964e-07, No Iterations 8
GAMG:  Solving for p, Initial residual = 0.1235626335, Final residual = 0.0004779914401, No Iterations 4
GAMG:  Solving for p, Initial residual = 0.0009050773716, Final residual = 6.101253883e-06, No Iterations 5
GAMG:  Solving for p, Initial residual = 0.0001923657659, Final residual = 1.470885969e-06, No Iterations 3
time step continuity errors : sum local = 4.27399622e-08, global = 1.712065895e-09
GAMG:  Solving for p, Initial residual = 0.08448053348, Final residual = 0.0007924100594, No Iterations 3
GAMG:  Solving for p, Initial residual = 0.001057323974, Final residual = 5.399558509e-06, No Iterations 5
GAMG:  Solving for p, Initial residual = 0.0001523935392, Final residual = 8.559286725e-08, No Iterations 6
time step continuity errors : sum local = 2.468284279e-09, global = -9.612604679e-10, cumulative = -7.912587293e-10
smoothSolver:  Solving for omega, Initial residual = 0.002398322759, Final residual = 3.821698081e-07, No Iterations 6
smoothSolver:  Solving for k, Initial residual = 0.006579259449, Final residual = 8.065646285e-07, No Iterations 6
ExecutionTime = 45.225031 s  ClockTime = 46 s

Courant Number mean: 0.2999960809 max: 16.8062146
Time = 0.01s

PIMPLE: Iteration 1
smoothSolver:  Solving for Ux, Initial residual = 0.02518201239, Final residual = 0.0003430323464, No Iterations 1
smoothSolver:  Solving for Uy, Initial residual = 0.02545683776, Final residual = 0.0006609338143, No Iterations 1
smoothSolver:  Solving for Uz, Initial residual = 0.02428593095, Final residual = 0.0005519425943, No Iterations 1
GAMG:  Solving for p, Initial residual = 0.1108306591, Final residual = 0.001100519443, No Iterations 3
GAMG:  Solving for p, Initial residual = 0.001526436272, Final residual = 7.304283019e-06, No Iterations 5
GAMG:  Solving for p, Initial residual = 0.0001808453092, Final residual = 1.507442282e-06, No Iterations 3
time step continuity errors : sum local = 3.712137639e-08, global = -3.898776374e-11
GAMG:  Solving for p, Initial residual = 0.07420549667, Final residual = 0.0006790541349, No Iterations 3
GAMG:  Solving for p, Initial residual = 0.000929868428, Final residual = 5.132189418e-06, No Iterations 5
GAMG:  Solving for p, Initial residual = 0.0001100726717, Final residual = 7.108516941e-08, No Iterations 7
time step continuity errors : sum local = 1.731944222e-09, global = 1.188667306e-10
PIMPLE: Iteration 2
smoothSolver:  Solving for Ux, Initial residual = 0.01137354152, Final residual = 0.0001923118367, No Iterations 1
smoothSolver:  Solving for Uy, Initial residual = 0.01346559236, Final residual = 0.000460338596, No Iterations 1
smoothSolver:  Solving for Uz, Initial residual = 0.01236746335, Final residual = 0.0003586201547, No Iterations 1
GAMG:  Solving for p, Initial residual = 0.09933091594, Final residual = 0.000507090709, No Iterations 4
GAMG:  Solving for p, Initial residual = 0.0009904620903, Final residual = 5.647491244e-06, No Iterations 5
GAMG:  Solving for p, Initial residual = 0.0001410659925, Final residual = 1.1200291e-06, No Iterations 3
time step continuity errors : sum local = 2.822370738e-08, global = -4.856278843e-09
GAMG:  Solving for p, Initial residual = 0.06574619515, Final residual = 0.0003129099182, No Iterations 4
GAMG:  Solving for p, Initial residual = 0.0006333643462, Final residual = 3.217740212e-06, No Iterations 5
GAMG:  Solving for p, Initial residual = 8.89059777e-05, Final residual = 9.33202817e-08, No Iterations 5
time step continuity errors : sum local = 2.328398226e-09, global = -4.178360632e-10
PIMPLE: Iteration 3
smoothSolver:  Solving for Ux, Initial residual = 0.01000709142, Final residual = 6.944080827e-07, No Iterations 6
smoothSolver:  Solving for Uy, Initial residual = 0.01568233397, Final residual = 3.116088142e-07, No Iterations 9
smoothSolver:  Solving for Uz, Initial residual = 0.01352663999, Final residual = 4.894252135e-07, No Iterations 8
GAMG:  Solving for p, Initial residual = 0.1187909641, Final residual = 0.00101994808, No Iterations 3
GAMG:  Solving for p, Initial residual = 0.001402207039, Final residual = 8.30295319e-06, No Iterations 5
GAMG:  Solving for p, Initial residual = 0.0001391914468, Final residual = 1.179652388e-06, No Iterations 3
time step continuity errors : sum local = 3.530067724e-08, global = -2.693488329e-09
GAMG:  Solving for p, Initial residual = 0.08167390341, Final residual = 0.0006264589624, No Iterations 3
GAMG:  Solving for p, Initial residual = 0.0008575694753, Final residual = 4.300609373e-06, No Iterations 5
GAMG:  Solving for p, Initial residual = 8.343517469e-05, Final residual = 8.706881185e-08, No Iterations 5
time step continuity errors : sum local = 2.578575955e-09, global = -3.231528439e-10, cumulative = -1.114411573e-09
smoothSolver:  Solving for omega, Initial residual = 0.002347575703, Final residual = 4.017022138e-07, No Iterations 6
smoothSolver:  Solving for k, Initial residual = 0.006077404673, Final residual = 8.559221384e-07, No Iterations 6
ExecutionTime = 53.686898 s  ClockTime = 54 s

volFieldValue tailUpstreamVelocity write:
    volAverage(upstreamTailZone) of magU = 6.438320056

Courant Number mean: 0.3094976682 max: 17.00862772
Time = 0.011s

PIMPLE: Iteration 1
smoothSolver:  Solving for Ux, Initial residual = 0.02350085765, Final residual = 0.0003099810298, No Iterations 1
smoothSolver:  Solving for Uy, Initial residual = 0.02484991684, Final residual = 0.0006370077115, No Iterations 1
smoothSolver:  Solving for Uz, Initial residual = 0.02323201727, Final residual = 0.000501386167, No Iterations 1
GAMG:  Solving for p, Initial residual = 0.1080577119, Final residual = 0.0009209584966, No Iterations 3
GAMG:  Solving for p, Initial residual = 0.001404088683, Final residual = 1.384618923e-05, No Iterations 4
GAMG:  Solving for p, Initial residual = 0.0002326475125, Final residual = 1.775794982e-06, No Iterations 3
time step continuity errors : sum local = 4.530232342e-08, global = -1.025321316e-08
GAMG:  Solving for p, Initial residual = 0.0784524337, Final residual = 0.000573118508, No Iterations 3
GAMG:  Solving for p, Initial residual = 0.0008610599141, Final residual = 5.504304231e-06, No Iterations 4
GAMG:  Solving for p, Initial residual = 0.0001009511168, Final residual = 9.506948754e-08, No Iterations 5
time step continuity errors : sum local = 2.343608509e-09, global = -5.989106415e-10
PIMPLE: Iteration 2
smoothSolver:  Solving for Ux, Initial residual = 0.01044051783, Final residual = 0.0001703175263, No Iterations 1
smoothSolver:  Solving for Uy, Initial residual = 0.01279201988, Final residual = 0.0004209647267, No Iterations 1
smoothSolver:  Solving for Uz, Initial residual = 0.01184465055, Final residual = 0.0003375181349, No Iterations 1
GAMG:  Solving for p, Initial residual = 0.0961402553, Final residual = 0.000937417218, No Iterations 3
GAMG:  Solving for p, Initial residual = 0.001488165349, Final residual = 5.491484579e-06, No Iterations 6
GAMG:  Solving for p, Initial residual = 0.0002592867655, Final residual = 1.690605124e-06, No Iterations 3
time step continuity errors : sum local = 4.400409075e-08, global = -2.789649657e-09
GAMG:  Solving for p, Initial residual = 0.06528105794, Final residual = 0.0005625372251, No Iterations 3
GAMG:  Solving for p, Initial residual = 0.0007812395953, Final residual = 5.654381556e-06, No Iterations 5
GAMG:  Solving for p, Initial residual = 0.0001306872778, Final residual = 9.315708924e-08, No Iterations 6
time step continuity errors : sum local = 2.384327919e-09, global = -9.381814498e-10
PIMPLE: Iteration 3
smoothSolver:  Solving for Ux, Initial residual = 0.008914470666, Final residual = 6.765211278e-07, No Iterations 6
smoothSolver:  Solving for Uy, Initial residual = 0.0141849015, Final residual = 3.354548984e-07, No Iterations 9
smoothSolver:  Solving for Uz, Initial residual = 0.01294146078, Final residual = 4.667924476e-07, No Iterations 8
GAMG:  Solving for p, Initial residual = 0.1152282125, Final residual = 0.0008543042179, No Iterations 3
GAMG:  Solving for p, Initial residual = 0.001281403662, Final residual = 8.197804938e-06, No Iterations 5
GAMG:  Solving for p, Initial residual = 0.0001961703817, Final residual = 1.456933424e-06, No Iterations 3
time step continuity errors : sum local = 4.489481946e-08, global = -9.022806882e-09
GAMG:  Solving for p, Initial residual = 0.08156463318, Final residual = 0.0005218720659, No Iterations 3
GAMG:  Solving for p, Initial residual = 0.0008737540688, Final residual = 2.244786246e-06, No Iterations 5
GAMG:  Solving for p, Initial residual = 6.77211917e-05, Final residual = 7.595084182e-08, No Iterations 5
time step continuity errors : sum local = 2.292606227e-09, global = 1.151069552e-10, cumulative = -9.99304618e-10
smoothSolver:  Solving for omega, Initial residual = 0.002205483368, Final residual = 8.46561574e-07, No Iterations 5
smoothSolver:  Solving for k, Initial residual = 0.005703093634, Final residual = 8.006297012e-07, No Iterations 6
ExecutionTime = 59.356212 s  ClockTime = 59 s

Courant Number mean: 0.3187732538 max: 17.11861738
Time = 0.012s

PIMPLE: Iteration 1
smoothSolver:  Solving for Ux, Initial residual = 0.02166069424, Final residual = 0.0002817822397, No Iterations 1
smoothSolver:  Solving for Uy, Initial residual = 0.02334186782, Final residual = 0.0006092493554, No Iterations 1
smoothSolver:  Solving for Uz, Initial residual = 0.02200400728, Final residual = 0.000477620851, No Iterations 1
GAMG:  Solving for p, Initial residual = 0.1059846951, Final residual = 0.0009339964464, No Iterations 3
GAMG:  Solving for p, Initial residual = 0.001453248777, Final residual = 1.290579988e-05, No Iterations 4
GAMG:  Solving for p, Initial residual = 0.0003076986438, Final residual = 1.999575552e-06, No Iterations 3
time step continuity errors : sum local = 5.235832386e-08, global = -5.721086237e-09
GAMG:  Solving for p, Initial residual = 0.07671909458, Final residual = 0.0005759831251, No Iterations 3
GAMG:  Solving for p, Initial residual = 0.0009694815308, Final residual = 4.037440742e-06, No Iterations 5
GAMG:  Solving for p, Initial residual = 0.0001562107476, Final residual = 7.982116202e-08, No Iterations 6
time step continuity errors : sum local = 1.985313286e-09, global = 2.247412166e-10
PIMPLE: Iteration 2
smoothSolver:  Solving for Ux, Initial residual = 0.009492853381, Final residual = 0.0001558118812, No Iterations 1
smoothSolver:  Solving for Uy, Initial residual = 0.01200778548, Final residual = 0.0004056439168, No Iterations 1
smoothSolver:  Solving for Uz, Initial residual = 0.01088145849, Final residual = 0.0003195813332, No Iterations 1
GAMG:  Solving for p, Initial residual = 0.09388315049, Final residual = 0.0009336089087, No Iterations 3
GAMG:  Solving for p, Initial residual = 0.001525328078, Final residual = 1.220375842e-05, No Iterations 5
GAMG:  Solving for p, Initial residual = 0.0003404667034, Final residual = 2.67006661e-06, No Iterations 3
time step continuity errors : sum local = 7.093822273e-08, global = 1.814565981e-10
GAMG:  Solving for p, Initial residual = 0.06320269102, Final residual = 0.0002486741703, No Iterations 4
GAMG:  Solving for p, Initial residual = 0.0008678196775, Final residual = 6.319529698e-06, No Iterations 4
GAMG:  Solving for p, Initial residual = 0.0001106800408, Final residual = 9.624242082e-08, No Iterations 6
time step continuity errors : sum local = 2.467183561e-09, global = -1.807221603e-10
PIMPLE: Iteration 3
smoothSolver:  Solving for Ux, Initial residual = 0.008121736005, Final residual = 5.14646333e-07, No Iterations 6
smoothSolver:  Solving for Uy, Initial residual = 0.01380170155, Final residual = 3.445309386e-07, No Iterations 9
smoothSolver:  Solving for Uz, Initial residual = 0.01149616282, Final residual = 4.578568351e-07, No Iterations 8
GAMG:  Solving for p, Initial residual = 0.1138624255, Final residual = 0.000858994954, No Iterations 3
GAMG:  Solving for p, Initial residual = 0.001357687254, Final residual = 6.306135081e-06, No Iterations 5
GAMG:  Solving for p, Initial residual = 0.0002949329218, Final residual = 1.844654152e-06, No Iterations 3
time step continuity errors : sum local = 5.795413004e-08, global = -4.578985763e-09
GAMG:  Solving for p, Initial residual = 0.08257287096, Final residual = 0.0006399050797, No Iterations 3
GAMG:  Solving for p, Initial residual = 0.001119239415, Final residual = 4.20790062e-06, No Iterations 5
GAMG:  Solving for p, Initial residual = 0.0002603800176, Final residual = 4.57476259e-08, No Iterations 7
time step continuity errors : sum local = 1.354388879e-09, global = 1.063888276e-11, cumulative = -9.886657353e-10
smoothSolver:  Solving for omega, Initial residual = 0.002133430942, Final residual = 8.066651452e-07, No Iterations 5
smoothSolver:  Solving for k, Initial residual = 0.005373267246, Final residual = 8.71702677e-07, No Iterations 6
ExecutionTime = 64.78118 s  ClockTime = 65 s

Courant Number mean: 0.3279479709 max: 17.96789
Time = 0.013s

PIMPLE: Iteration 1
smoothSolver:  Solving for Ux, Initial residual = 0.02029817614, Final residual = 0.000269081379, No Iterations 1
smoothSolver:  Solving for Uy, Initial residual = 0.02239101838, Final residual = 0.0005783027543, No Iterations 1
smoothSolver:  Solving for Uz, Initial residual = 0.02024023305, Final residual = 0.0004384900502, No Iterations 1
GAMG:  Solving for p, Initial residual = 0.1018322679, Final residual = 0.0008859927438, No Iterations 3
GAMG:  Solving for p, Initial residual = 0.001287889604, Final residual = 4.439501923e-06, No Iterations 6
GAMG:  Solving for p, Initial residual = 0.0002839506596, Final residual = 1.836112328e-06, No Iterations 3
time step continuity errors : sum local = 4.94704213e-08, global = -3.233008942e-09
GAMG:  Solving for p, Initial residual = 0.07053241787, Final residual = 0.0005223473683, No Iterations 3
GAMG:  Solving for p, Initial residual = 0.0008557207718, Final residual = 8.334821736e-06, No Iterations 4
GAMG:  Solving for p, Initial residual = 0.0001289171642, Final residual = 3.673525415e-08, No Iterations 7
time step continuity errors : sum local = 9.390790183e-10, global = 1.920531902e-10
PIMPLE: Iteration 2
smoothSolver:  Solving for Ux, Initial residual = 0.008851052798, Final residual = 0.0001445095607, No Iterations 1
smoothSolver:  Solving for Uy, Initial residual = 0.01188163142, Final residual = 0.0003950501861, No Iterations 1
smoothSolver:  Solving for Uz, Initial residual = 0.01022984036, Final residual = 0.0002936093155, No Iterations 1
GAMG:  Solving for p, Initial residual = 0.09005801679, Final residual = 0.0008763929533, No Iterations 3
GAMG:  Solving for p, Initial residual = 0.001325969136, Final residual = 1.222273287e-05, No Iterations 5
GAMG:  Solving for p, Initial residual = 0.0003163366646, Final residual = 2.367140433e-06, No Iterations 3
time step continuity errors : sum local = 6.454643551e-08, global = -7.463677769e-10
GAMG:  Solving for p, Initial residual = 0.06017412495, Final residual = 0.0005545562812, No Iterations 3
GAMG:  Solving for p, Initial residual = 0.0008098823957, Final residual = 7.209572289e-06, No Iterations 5
GAMG:  Solving for p, Initial residual = 0.0002046727986, Final residual = 8.143188037e-08, No Iterations 7
time step continuity errors : sum local = 2.208632063e-09, global = 1.312207374e-10
PIMPLE: Iteration 3
smoothSolver:  Solving for Ux, Initial residual = 0.007457510542, Final residual = 4.760957068e-07, No Iterations 6
smoothSolver:  Solving for Uy, Initial residual = 0.01370943902, Final residual = 3.389777193e-07, No Iterations 9
smoothSolver:  Solving for Uz, Initial residual = 0.01086386523, Final residual = 9.137608162e-07, No Iterations 7
GAMG:  Solving for p, Initial residual = 0.1130032609, Final residual = 0.0008025009272, No Iterations 3
GAMG:  Solving for p, Initial residual = 0.00121346402, Final residual = 1.019798992e-05, No Iterations 5
GAMG:  Solving for p, Initial residual = 0.0002749714158, Final residual = 2.352154619e-06, No Iterations 3
time step continuity errors : sum local = 7.671912573e-08, global = -1.831371299e-09
GAMG:  Solving for p, Initial residual = 0.07826781875, Final residual = 0.0004329358521, No Iterations 3
GAMG:  Solving for p, Initial residual = 0.0007528810086, Final residual = 3.134669952e-06, No Iterations 5
GAMG:  Solving for p, Initial residual = 6.652184495e-05, Final residual = 8.578645024e-08, No Iterations 5
time step continuity errors : sum local = 2.705552153e-09, global = -6.771219663e-11, cumulative = -1.056377932e-09
smoothSolver:  Solving for omega, Initial residual = 0.002055054248, Final residual = 6.723972441e-07, No Iterations 5
smoothSolver:  Solving for k, Initial residual = 0.005088612602, Final residual = 8.397082357e-07, No Iterations 6
ExecutionTime = 69.473043 s  ClockTime = 70 s

Courant Number mean: 0.3373229998 max: 18.6411329
Time = 0.014s

PIMPLE: Iteration 1
smoothSolver:  Solving for Ux, Initial residual = 0.01913342553, Final residual = 0.0002576163354, No Iterations 1
smoothSolver:  Solving for Uy, Initial residual = 0.02141485978, Final residual = 0.0005476592555, No Iterations 1
smoothSolver:  Solving for Uz, Initial residual = 0.01900992446, Final residual = 0.0004083378388, No Iterations 1
GAMG:  Solving for p, Initial residual = 0.0976630359, Final residual = 0.0008659168416, No Iterations 3
GAMG:  Solving for p, Initial residual = 0.001362339872, Final residual = 6.169701589e-06, No Iterations 5
GAMG:  Solving for p, Initial residual = 0.0003484549445, Final residual = 2.416641937e-06, No Iterations 3
time step continuity errors : sum local = 6.5211844e-08, global = 2.973033387e-09
GAMG:  Solving for p, Initial residual = 0.06558028511, Final residual = 0.0005196637846, No Iterations 3
GAMG:  Solving for p, Initial residual = 0.0007973031869, Final residual = 6.668872814e-06, No Iterations 5
GAMG:  Solving for p, Initial residual = 0.0002114805826, Final residual = 7.504776599e-08, No Iterations 7
time step continuity errors : sum local = 2.03598628e-09, global = 8.353677821e-11
PIMPLE: Iteration 2
smoothSolver:  Solving for Ux, Initial residual = 0.008323304151, Final residual = 0.0001377818741, No Iterations 1
smoothSolver:  Solving for Uy, Initial residual = 0.01146958157, Final residual = 0.0003773617469, No Iterations 1
smoothSolver:  Solving for Uz, Initial residual = 0.009567343383, Final residual = 0.0002664226094, No Iterations 1
GAMG:  Solving for p, Initial residual = 0.08548965705, Final residual = 0.000754971178, No Iterations 3
GAMG:  Solving for p, Initial residual = 0.001210146273, Final residual = 9.884271431e-06, No Iterations 5
GAMG:  Solving for p, Initial residual = 0.0003034882499, Final residual = 2.272954537e-06, No Iterations 3
time step continuity errors : sum local = 6.303235595e-08, global = 6.095595245e-10
GAMG:  Solving for p, Initial residual = 0.05706072991, Final residual = 0.0004558613516, No Iterations 3
GAMG:  Solving for p, Initial residual = 0.0007249039332, Final residual = 6.212754438e-06, No Iterations 5
GAMG:  Solving for p, Initial residual = 0.0001802489578, Final residual = 7.115680905e-08, No Iterations 7
time step continuity errors : sum local = 1.956912157e-09, global = 8.2227063e-11
PIMPLE: Iteration 3
smoothSolver:  Solving for Ux, Initial residual = 0.006972461171, Final residual = 4.027351353e-07, No Iterations 6
smoothSolver:  Solving for Uy, Initial residual = 0.01315794598, Final residual = 3.279461455e-07, No Iterations 9
smoothSolver:  Solving for Uz, Initial residual = 0.009920726716, Final residual = 8.822288574e-07, No Iterations 7
GAMG:  Solving for p, Initial residual = 0.1092255728, Final residual = 0.0007010905723, No Iterations 3
GAMG:  Solving for p, Initial residual = 0.001107763636, Final residual = 5.675152006e-06, No Iterations 5
GAMG:  Solving for p, Initial residual = 0.000244940518, Final residual = 1.551164318e-06, No Iterations 3
time step continuity errors : sum local = 5.146675794e-08, global = -5.26320097e-09
GAMG:  Solving for p, Initial residual = 0.07432960728, Final residual = 0.0004463188301, No Iterations 3
GAMG:  Solving for p, Initial residual = 0.0006830928062, Final residual = 2.590222399e-06, No Iterations 5
GAMG:  Solving for p, Initial residual = 0.0001577113571, Final residual = 5.459574018e-08, No Iterations 6
time step continuity errors : sum local = 1.813142814e-09, global = -5.622817856e-10, cumulative = -1.618659718e-09
smoothSolver:  Solving for omega, Initial residual = 0.002031018597, Final residual = 6.235770005e-07, No Iterations 5
smoothSolver:  Solving for k, Initial residual = 0.004775330215, Final residual = 7.770212649e-07, No Iterations 6
ExecutionTime = 74.248606 s  ClockTime = 76 s

Courant Number mean: 0.3467364977 max: 19.16839079
Time = 0.015s

PIMPLE: Iteration 1
smoothSolver:  Solving for Ux, Initial residual = 0.01833491674, Final residual = 0.0002477195301, No Iterations 1
smoothSolver:  Solving for Uy, Initial residual = 0.02081685017, Final residual = 0.0005166683225, No Iterations 1
smoothSolver:  Solving for Uz, Initial residual = 0.01790067866, Final residual = 0.0003702000032, No Iterations 1
GAMG:  Solving for p, Initial residual = 0.09181616833, Final residual = 0.0007042255522, No Iterations 3
GAMG:  Solving for p, Initial residual = 0.001042080289, Final residual = 9.070982484e-06, No Iterations 4
GAMG:  Solving for p, Initial residual = 0.0002303236827, Final residual = 1.535197136e-06, No Iterations 3
time step continuity errors : sum local = 4.27124721e-08, global = -4.405187706e-09
GAMG:  Solving for p, Initial residual = 0.06991272051, Final residual = 0.0005756919219, No Iterations 3
GAMG:  Solving for p, Initial residual = 0.001244114416, Final residual = 1.140159572e-05, No Iterations 4
GAMG:  Solving for p, Initial residual = 0.000261176789, Final residual = 5.017847517e-08, No Iterations 7
time step continuity errors : sum local = 1.289881981e-09, global = 2.308394602e-10
PIMPLE: Iteration 2
smoothSolver:  Solving for Ux, Initial residual = 0.007871717247, Final residual = 0.0001311664274, No Iterations 1
smoothSolver:  Solving for Uy, Initial residual = 0.01089967383, Final residual = 0.0003409991946, No Iterations 1
smoothSolver:  Solving for Uz, Initial residual = 0.008765344965, Final residual = 0.0002333130934, No Iterations 1
GAMG:  Solving for p, Initial residual = 0.08406831509, Final residual = 0.0007678463394, No Iterations 3
GAMG:  Solving for p, Initial residual = 0.001299688306, Final residual = 8.153477464e-06, No Iterations 5
GAMG:  Solving for p, Initial residual = 0.0002985902165, Final residual = 2.078056433e-06, No Iterations 3
time step continuity errors : sum local = 5.874555044e-08, global = 1.63865907e-10
GAMG:  Solving for p, Initial residual = 0.05807949855, Final residual = 0.0004293584294, No Iterations 3
GAMG:  Solving for p, Initial residual = 0.0007117303833, Final residual = 4.76901887e-06, No Iterations 4
GAMG:  Solving for p, Initial residual = 8.790528753e-05, Final residual = 4.997031635e-08, No Iterations 6
time step continuity errors : sum local = 1.354543975e-09, global = -4.448174274e-11
PIMPLE: Iteration 3
smoothSolver:  Solving for Ux, Initial residual = 0.006525353995, Final residual = 8.309991788e-07, No Iterations 5
smoothSolver:  Solving for Uy, Initial residual = 0.01232189583, Final residual = 9.610654253e-07, No Iterations 8
smoothSolver:  Solving for Uz, Initial residual = 0.008961751577, Final residual = 9.283366931e-07, No Iterations 7
GAMG:  Solving for p, Initial residual = 0.1099955746, Final residual = 0.0007863190277, No Iterations 3
GAMG:  Solving for p, Initial residual = 0.001271243356, Final residual = 4.291956007e-06, No Iterations 5
GAMG:  Solving for p, Initial residual = 0.0003062626956, Final residual = 1.928506343e-06, No Iterations 3
time step continuity errors : sum local = 6.456949754e-08, global = -1.321897597e-09
GAMG:  Solving for p, Initial residual = 0.07884049635, Final residual = 0.0004883047464, No Iterations 3
GAMG:  Solving for p, Initial residual = 0.001030202229, Final residual = 7.8310589e-06, No Iterations 4
GAMG:  Solving for p, Initial residual = 0.000201518143, Final residual = 9.105380279e-08, No Iterations 6
time step continuity errors : sum local = 2.865318833e-09, global = 9.972297035e-10, cumulative = -6.214300141e-10
smoothSolver:  Solving for omega, Initial residual = 0.001982369134, Final residual = 5.628362239e-07, No Iterations 5
smoothSolver:  Solving for k, Initial residual = 0.004465361981, Final residual = 6.98917597e-07, No Iterations 6
ExecutionTime = 79.411606 s  ClockTime = 79 s

Courant Number mean: 0.3555376923 max: 19.45076257
Time = 0.016s

PIMPLE: Iteration 1
smoothSolver:  Solving for Ux, Initial residual = 0.01727779505, Final residual = 0.0002342621453, No Iterations 1
smoothSolver:  Solving for Uy, Initial residual = 0.01963736488, Final residual = 0.0004832611558, No Iterations 1
smoothSolver:  Solving for Uz, Initial residual = 0.01651831166, Final residual = 0.0003327599288, No Iterations 1
GAMG:  Solving for p, Initial residual = 0.09418414128, Final residual = 0.0003879494312, No Iterations 4
GAMG:  Solving for p, Initial residual = 0.0013649157, Final residual = 9.406843239e-06, No Iterations 4
GAMG:  Solving for p, Initial residual = 0.0001070807861, Final residual = 4.020063168e-07, No Iterations 4
time step continuity errors : sum local = 1.172661327e-08, global = -3.303273911e-09
GAMG:  Solving for p, Initial residual = 0.06769168787, Final residual = 0.0005004520768, No Iterations 3
GAMG:  Solving for p, Initial residual = 0.0009399480153, Final residual = 7.481740042e-06, No Iterations 4
GAMG:  Solving for p, Initial residual = 8.09532272e-05, Final residual = 6.222275109e-08, No Iterations 6
time step continuity errors : sum local = 1.685367814e-09, global = 3.527725585e-10
PIMPLE: Iteration 2
smoothSolver:  Solving for Ux, Initial residual = 0.007371959901, Final residual = 0.0001197232076, No Iterations 1
smoothSolver:  Solving for Uy, Initial residual = 0.01024167095, Final residual = 0.0003131283176, No Iterations 1
smoothSolver:  Solving for Uz, Initial residual = 0.008191299165, Final residual = 0.0002126870358, No Iterations 1
GAMG:  Solving for p, Initial residual = 0.08178540855, Final residual = 0.0004040050177, No Iterations 4
GAMG:  Solving for p, Initial residual = 0.001367587202, Final residual = 8.747654976e-06, No Iterations 4
GAMG:  Solving for p, Initial residual = 0.0001154964246, Final residual = 9.571827772e-07, No Iterations 3
time step continuity errors : sum local = 2.817196464e-08, global = 8.006882881e-10
GAMG:  Solving for p, Initial residual = 0.05333810196, Final residual = 0.000231623428, No Iterations 4
GAMG:  Solving for p, Initial residual = 0.0009016601051, Final residual = 6.023980999e-06, No Iterations 4
GAMG:  Solving for p, Initial residual = 7.818578114e-05, Final residual = 4.590568058e-08, No Iterations 6
time step continuity errors : sum local = 1.332693887e-09, global = -2.945258707e-10
PIMPLE: Iteration 3
smoothSolver:  Solving for Ux, Initial residual = 0.006105682895, Final residual = 8.046586458e-07, No Iterations 5
smoothSolver:  Solving for Uy, Initial residual = 0.01153890266, Final residual = 8.312701679e-07, No Iterations 8
smoothSolver:  Solving for Uz, Initial residual = 0.008434879115, Final residual = 7.0836595e-07, No Iterations 7
GAMG:  Solving for p, Initial residual = 0.1041816724, Final residual = 0.0008015472407, No Iterations 3
GAMG:  Solving for p, Initial residual = 0.001405278938, Final residual = 1.077861426e-05, No Iterations 4
GAMG:  Solving for p, Initial residual = 0.0003230753261, Final residual = 2.276988454e-06, No Iterations 3
time step continuity errors : sum local = 7.965738896e-08, global = -5.834883321e-09
GAMG:  Solving for p, Initial residual = 0.07376189696, Final residual = 0.0004472216615, No Iterations 3
GAMG:  Solving for p, Initial residual = 0.0009754405368, Final residual = 3.509748057e-06, No Iterations 5
GAMG:  Solving for p, Initial residual = 0.0001276412251, Final residual = 5.050427559e-08, No Iterations 6
time step continuity errors : sum local = 1.661266786e-09, global = 3.891757083e-10, cumulative = -2.322543057e-10
smoothSolver:  Solving for omega, Initial residual = 0.001950089049, Final residual = 6.081820304e-07, No Iterations 5
smoothSolver:  Solving for k, Initial residual = 0.004283826763, Final residual = 6.868443504e-07, No Iterations 6
ExecutionTime = 83.496881 s  ClockTime = 83 s

Courant Number mean: 0.3643793452 max: 19.62173734
Time = 0.017s

PIMPLE: Iteration 1
smoothSolver:  Solving for Ux, Initial residual = 0.01636096508, Final residual = 0.0002206032763, No Iterations 1
smoothSolver:  Solving for Uy, Initial residual = 0.01828012375, Final residual = 0.0004257452799, No Iterations 1
smoothSolver:  Solving for Uz, Initial residual = 0.0156361303, Final residual = 0.0003082537746, No Iterations 1
GAMG:  Solving for p, Initial residual = 0.08562769429, Final residual = 0.000358605084, No Iterations 4
GAMG:  Solving for p, Initial residual = 0.001167798638, Final residual = 6.874511333e-06, No Iterations 4
GAMG:  Solving for p, Initial residual = 0.0001277393167, Final residual = 1.055299603e-06, No Iterations 3
time step continuity errors : sum local = 3.097435271e-08, global = 1.041412924e-09
GAMG:  Solving for p, Initial residual = 0.06011548551, Final residual = 0.0002444235722, No Iterations 4
GAMG:  Solving for p, Initial residual = 0.0008302787396, Final residual = 5.531888401e-06, No Iterations 4
GAMG:  Solving for p, Initial residual = 9.751665649e-05, Final residual = 7.609534932e-08, No Iterations 6
time step continuity errors : sum local = 2.115938654e-09, global = 5.372879031e-10
PIMPLE: Iteration 2
smoothSolver:  Solving for Ux, Initial residual = 0.006821511476, Final residual = 0.0001068456962, No Iterations 1
smoothSolver:  Solving for Uy, Initial residual = 0.00908795606, Final residual = 0.0002598955116, No Iterations 1
smoothSolver:  Solving for Uz, Initial residual = 0.007731670858, Final residual = 0.00019337094, No Iterations 1
GAMG:  Solving for p, Initial residual = 0.07291820214, Final residual = 0.0003193407298, No Iterations 4
GAMG:  Solving for p, Initial residual = 0.001078807805, Final residual = 6.509885595e-06, No Iterations 4
GAMG:  Solving for p, Initial residual = 0.000108184786, Final residual = 9.245018643e-07, No Iterations 3
time step continuity errors : sum local = 2.729869293e-08, global = 9.101969359e-10
GAMG:  Solving for p, Initial residual = 0.04792948007, Final residual = 0.0001869553504, No Iterations 4
GAMG:  Solving for p, Initial residual = 0.000659020512, Final residual = 4.131701888e-06, No Iterations 4
GAMG:  Solving for p, Initial residual = 6.902729819e-05, Final residual = 3.957264894e-08, No Iterations 6
time step continuity errors : sum local = 1.154567124e-09, global = -2.457645282e-10
PIMPLE: Iteration 3
smoothSolver:  Solving for Ux, Initial residual = 0.005359753894, Final residual = 7.541297756e-07, No Iterations 5
smoothSolver:  Solving for Uy, Initial residual = 0.009836928048, Final residual = 7.243597154e-07, No Iterations 8
smoothSolver:  Solving for Uz, Initial residual = 0.007860173371, Final residual = 6.97719552e-07, No Iterations 7
GAMG:  Solving for p, Initial residual = 0.09865906623, Final residual = 0.0006330059072, No Iterations 3
GAMG:  Solving for p, Initial residual = 0.00110074334, Final residual = 7.181939521e-06, No Iterations 5
GAMG:  Solving for p, Initial residual = 0.0002783316473, Final residual = 1.844337116e-06, No Iterations 3
time step continuity errors : sum local = 6.511302793e-08, global = 2.673615257e-11
GAMG:  Solving for p, Initial residual = 0.06815837458, Final residual = 0.0003549595965, No Iterations 3
GAMG:  Solving for p, Initial residual = 0.000612816422, Final residual = 3.892254996e-06, No Iterations 4
GAMG:  Solving for p, Initial residual = 0.0001185259282, Final residual = 4.813395841e-08, No Iterations 6
time step continuity errors : sum local = 1.672736282e-09, global = -3.068323062e-10, cumulative = -5.39086612e-10
smoothSolver:  Solving for omega, Initial residual = 0.001894552732, Final residual = 4.410520605e-07, No Iterations 5
smoothSolver:  Solving for k, Initial residual = 0.004182970244, Final residual = 5.642032028e-07, No Iterations 6
ExecutionTime = 87.987538 s  ClockTime = 88 s

Courant Number mean: 0.3723584277 max: 20.02101046
Time = 0.018s

PIMPLE: Iteration 1
smoothSolver:  Solving for Ux, Initial residual = 0.01534164377, Final residual = 0.0001985812516, No Iterations 1
smoothSolver:  Solving for Uy, Initial residual = 0.01677528325, Final residual = 0.0003854606633, No Iterations 1
smoothSolver:  Solving for Uz, Initial residual = 0.01500636433, Final residual = 0.00029644385, No Iterations 1
GAMG:  Solving for p, Initial residual = 0.07561806893, Final residual = 0.0007080886346, No Iterations 3
GAMG:  Solving for p, Initial residual = 0.0009877845686, Final residual = 7.126200915e-06, No Iterations 4
GAMG:  Solving for p, Initial residual = 0.000214341764, Final residual = 1.493169565e-06, No Iterations 3
time step continuity errors : sum local = 4.339753274e-08, global = 6.70371074e-10
GAMG:  Solving for p, Initial residual = 0.05204331756, Final residual = 0.0004676089304, No Iterations 3
GAMG:  Solving for p, Initial residual = 0.0007012051517, Final residual = 5.146055208e-06, No Iterations 5
GAMG:  Solving for p, Initial residual = 0.0001391007416, Final residual = 7.944401391e-08, No Iterations 6
time step continuity errors : sum local = 2.229912071e-09, global = 5.45242027e-10
PIMPLE: Iteration 2
smoothSolver:  Solving for Ux, Initial residual = 0.006332434899, Final residual = 9.484285923e-05, No Iterations 1
smoothSolver:  Solving for Uy, Initial residual = 0.008445923306, Final residual = 0.0002376332725, No Iterations 1
smoothSolver:  Solving for Uz, Initial residual = 0.007384834732, Final residual = 0.0001835284424, No Iterations 1
GAMG:  Solving for p, Initial residual = 0.06416715447, Final residual = 0.0006274225834, No Iterations 3
GAMG:  Solving for p, Initial residual = 0.000949188963, Final residual = 7.90237118e-06, No Iterations 4
GAMG:  Solving for p, Initial residual = 0.000232692741, Final residual = 1.638709694e-06, No Iterations 3
time step continuity errors : sum local = 4.794551164e-08, global = -7.338964647e-09
GAMG:  Solving for p, Initial residual = 0.04322676411, Final residual = 0.0003652046408, No Iterations 3
GAMG:  Solving for p, Initial residual = 0.0005261181494, Final residual = 3.625099296e-06, No Iterations 4
GAMG:  Solving for p, Initial residual = 0.0001050114271, Final residual = 4.551501613e-08, No Iterations 6
time step continuity errors : sum local = 1.31069219e-09, global = -2.542246923e-10
PIMPLE: Iteration 3
smoothSolver:  Solving for Ux, Initial residual = 0.004890631821, Final residual = 7.319534723e-07, No Iterations 5
smoothSolver:  Solving for Uy, Initial residual = 0.009119501147, Final residual = 6.895956791e-07, No Iterations 8
smoothSolver:  Solving for Uz, Initial residual = 0.007353497567, Final residual = 8.335163166e-07, No Iterations 7
GAMG:  Solving for p, Initial residual = 0.09640144556, Final residual = 0.0005399774117, No Iterations 3
GAMG:  Solving for p, Initial residual = 0.0009121205958, Final residual = 2.684828214e-06, No Iterations 5
GAMG:  Solving for p, Initial residual = 0.0002309751958, Final residual = 1.399667847e-06, No Iterations 3
time step continuity errors : sum local = 4.922016616e-08, global = -1.921297318e-09
GAMG:  Solving for p, Initial residual = 0.06627293033, Final residual = 0.0003146611045, No Iterations 3
GAMG:  Solving for p, Initial residual = 0.0005655841065, Final residual = 1.653599944e-06, No Iterations 5
GAMG:  Solving for p, Initial residual = 8.670749195e-05, Final residual = 3.329176877e-08, No Iterations 6
time step continuity errors : sum local = 1.15690305e-09, global = 1.62819789e-10, cumulative = -3.76266823e-10
smoothSolver:  Solving for omega, Initial residual = 0.00184931601, Final residual = 4.470027969e-07, No Iterations 5
smoothSolver:  Solving for k, Initial residual = 0.004122100391, Final residual = 5.576492924e-07, No Iterations 6
ExecutionTime = 92.178654 s  ClockTime = 92 s

Courant Number mean: 0.3800149862 max: 20.56587492
Time = 0.019s

PIMPLE: Iteration 1
smoothSolver:  Solving for Ux, Initial residual = 0.01445506993, Final residual = 0.0001814618958, No Iterations 1
smoothSolver:  Solving for Uy, Initial residual = 0.01609161717, Final residual = 0.0003757768369, No Iterations 1
smoothSolver:  Solving for Uz, Initial residual = 0.01431242843, Final residual = 0.000279541295, No Iterations 1
GAMG:  Solving for p, Initial residual = 0.07141539711, Final residual = 0.0006344104491, No Iterations 3
GAMG:  Solving for p, Initial residual = 0.0009803722158, Final residual = 8.666722342e-06, No Iterations 4
GAMG:  Solving for p, Initial residual = 0.0002475778919, Final residual = 1.808070485e-06, No Iterations 3
time step continuity errors : sum local = 5.353285102e-08, global = -8.073756805e-09
GAMG:  Solving for p, Initial residual = 0.0481781085, Final residual = 0.0004075529786, No Iterations 3
GAMG:  Solving for p, Initial residual = 0.0006427949903, Final residual = 6.20177461e-06, No Iterations 4
GAMG:  Solving for p, Initial residual = 0.0001710057783, Final residual = 3.002586862e-08, No Iterations 7
time step continuity errors : sum local = 8.806025999e-10, global = -1.115851658e-10
PIMPLE: Iteration 2
smoothSolver:  Solving for Ux, Initial residual = 0.005971950398, Final residual = 8.703039762e-05, No Iterations 1
smoothSolver:  Solving for Uy, Initial residual = 0.008088965604, Final residual = 0.0002295390015, No Iterations 1
smoothSolver:  Solving for Uz, Initial residual = 0.00699365466, Final residual = 0.0001699006492, No Iterations 1
GAMG:  Solving for p, Initial residual = 0.06052650706, Final residual = 0.0005157860482, No Iterations 3
GAMG:  Solving for p, Initial residual = 0.0008789910411, Final residual = 7.870744437e-06, No Iterations 4
GAMG:  Solving for p, Initial residual = 0.0002169786341, Final residual = 1.613206578e-06, No Iterations 3
time step continuity errors : sum local = 4.793115362e-08, global = -7.166848042e-09
GAMG:  Solving for p, Initial residual = 0.04056272645, Final residual = 0.0003126756096, No Iterations 3
GAMG:  Solving for p, Initial residual = 0.0005138604755, Final residual = 4.849311447e-06, No Iterations 4
GAMG:  Solving for p, Initial residual = 0.0001290701292, Final residual = 8.25519348e-08, No Iterations 6
time step continuity errors : sum local = 2.436526398e-09, global = -1.280561504e-11
PIMPLE: Iteration 3
smoothSolver:  Solving for Ux, Initial residual = 0.004613615187, Final residual = 7.165451491e-07, No Iterations 5
smoothSolver:  Solving for Uy, Initial residual = 0.008529399238, Final residual = 7.085469489e-07, No Iterations 8
smoothSolver:  Solving for Uz, Initial residual = 0.006848297963, Final residual = 9.024415376e-07, No Iterations 7
GAMG:  Solving for p, Initial residual = 0.0934786101, Final residual = 0.0004850771415, No Iterations 3
GAMG:  Solving for p, Initial residual = 0.0008068602456, Final residual = 6.759495332e-06, No Iterations 4
GAMG:  Solving for p, Initial residual = 0.000185389343, Final residual = 1.255898929e-06, No Iterations 3
time step continuity errors : sum local = 4.473657252e-08, global = -1.181463686e-09
GAMG:  Solving for p, Initial residual = 0.06413295273, Final residual = 0.0003060467099, No Iterations 3
GAMG:  Solving for p, Initial residual = 0.0004912616974, Final residual = 2.092667276e-06, No Iterations 5
GAMG:  Solving for p, Initial residual = 0.0001132442889, Final residual = 9.870402252e-08, No Iterations 5
time step continuity errors : sum local = 3.527800852e-09, global = -6.096268792e-10, cumulative = -9.858937022e-10
smoothSolver:  Solving for omega, Initial residual = 0.001805888691, Final residual = 3.600075331e-07, No Iterations 5
smoothSolver:  Solving for k, Initial residual = 0.004075487945, Final residual = 4.702993489e-07, No Iterations 6
ExecutionTime = 96.113337 s  ClockTime = 97 s

Courant Number mean: 0.3875627595 max: 20.97530996
Time = 0.02s

PIMPLE: Iteration 1
smoothSolver:  Solving for Ux, Initial residual = 0.0138748679, Final residual = 0.0001691588505, No Iterations 1
smoothSolver:  Solving for Uy, Initial residual = 0.01537696558, Final residual = 0.0003592586632, No Iterations 1
smoothSolver:  Solving for Uz, Initial residual = 0.01362656141, Final residual = 0.0002694405873, No Iterations 1
GAMG:  Solving for p, Initial residual = 0.0682597407, Final residual = 0.0005089978551, No Iterations 3
GAMG:  Solving for p, Initial residual = 0.0008273922494, Final residual = 7.138347708e-06, No Iterations 4
GAMG:  Solving for p, Initial residual = 0.0001830852831, Final residual = 1.363814606e-06, No Iterations 3
time step continuity errors : sum local = 4.068222776e-08, global = -3.824581328e-09
GAMG:  Solving for p, Initial residual = 0.04829711842, Final residual = 0.0003774009293, No Iterations 3
GAMG:  Solving for p, Initial residual = 0.0006823551966, Final residual = 3.543598809e-06, No Iterations 5
GAMG:  Solving for p, Initial residual = 0.0001399696224, Final residual = 9.991358499e-08, No Iterations 6
time step continuity errors : sum local = 2.871283569e-09, global = 8.707190422e-10
PIMPLE: Iteration 2
smoothSolver:  Solving for Ux, Initial residual = 0.005690292176, Final residual = 8.128350379e-05, No Iterations 1
smoothSolver:  Solving for Uy, Initial residual = 0.007605527981, Final residual = 0.0002182516017, No Iterations 1
smoothSolver:  Solving for Uz, Initial residual = 0.006661519528, Final residual = 0.0001612955146, No Iterations 1
GAMG:  Solving for p, Initial residual = 0.05890403496, Final residual = 0.0004931702246, No Iterations 3
GAMG:  Solving for p, Initial residual = 0.000941665359, Final residual = 6.32148004e-06, No Iterations 4
GAMG:  Solving for p, Initial residual = 0.0002062103983, Final residual = 1.42073495e-06, No Iterations 3
time step continuity errors : sum local = 4.265062832e-08, global = -4.020465694e-09
GAMG:  Solving for p, Initial residual = 0.03981217909, Final residual = 0.0002781968134, No Iterations 3
GAMG:  Solving for p, Initial residual = 0.0005141827295, Final residual = 4.132177855e-06, No Iterations 4
GAMG:  Solving for p, Initial residual = 0.0001113652116, Final residual = 6.974073771e-08, No Iterations 6
time step continuity errors : sum local = 2.069226527e-09, global = -4.374470588e-11
PIMPLE: Iteration 3
smoothSolver:  Solving for Ux, Initial residual = 0.004366999335, Final residual = 7.164186221e-07, No Iterations 5
smoothSolver:  Solving for Uy, Initial residual = 0.008005176779, Final residual = 7.105606917e-07, No Iterations 8
smoothSolver:  Solving for Uz, Initial residual = 0.006432642954, Final residual = 8.553587347e-07, No Iterations 7
GAMG:  Solving for p, Initial residual = 0.09258939319, Final residual = 0.0005136740981, No Iterations 3
GAMG:  Solving for p, Initial residual = 0.000898166834, Final residual = 3.424127972e-06, No Iterations 5
GAMG:  Solving for p, Initial residual = 0.0002039951968, Final residual = 1.247276128e-06, No Iterations 3
time step continuity errors : sum local = 4.498061775e-08, global = -5.873360459e-09
GAMG:  Solving for p, Initial residual = 0.06500059325, Final residual = 0.0003467271965, No Iterations 3
GAMG:  Solving for p, Initial residual = 0.0006744079429, Final residual = 5.425763239e-06, No Iterations 4
GAMG:  Solving for p, Initial residual = 0.0001253108332, Final residual = 8.651607128e-08, No Iterations 6
time step continuity errors : sum local = 3.039009087e-09, global = 9.826742098e-10, cumulative = -3.219492381e-12
smoothSolver:  Solving for omega, Initial residual = 0.001770388424, Final residual = 3.878095583e-07, No Iterations 5
smoothSolver:  Solving for k, Initial residual = 0.004034322588, Final residual = 4.202350565e-07, No Iterations 6
ExecutionTime = 101.307656 s  ClockTime = 102 s

volFieldValue tailUpstreamVelocity write:
    volAverage(upstreamTailZone) of magU = 7.287445685

Courant Number mean: 0.3947069825 max: 21.35709658
Time = 0.021s

PIMPLE: Iteration 1
[...]
Time = 0.099s

PIMPLE: Iteration 1
smoothSolver:  Solving for Ux, Initial residual = 0.007073869269, Final residual = 0.0001608407704, No Iterations 1
smoothSolver:  Solving for Uy, Initial residual = 0.03017689619, Final residual = 0.0006984087876, No Iterations 1
smoothSolver:  Solving for Uz, Initial residual = 0.01305341937, Final residual = 0.0003135411487, No Iterations 1
GAMG:  Solving for p, Initial residual = 0.1215045993, Final residual = 0.0009640756751, No Iterations 3
GAMG:  Solving for p, Initial residual = 0.002060460437, Final residual = 1.360486182e-05, No Iterations 4
GAMG:  Solving for p, Initial residual = 0.0004694078361, Final residual = 3.849659751e-06, No Iterations 3
time step continuity errors : sum local = 4.127270528e-08, global = -2.982600648e-10
GAMG:  Solving for p, Initial residual = 0.08591038471, Final residual = 0.0005996263683, No Iterations 3
GAMG:  Solving for p, Initial residual = 0.001385299891, Final residual = 9.866940068e-06, No Iterations 4
GAMG:  Solving for p, Initial residual = 0.0003007261028, Final residual = 8.316405631e-08, No Iterations 7
time step continuity errors : sum local = 8.76537064e-10, global = -4.510406017e-11
PIMPLE: Iteration 2
smoothSolver:  Solving for Ux, Initial residual = 0.003257909147, Final residual = 8.156219684e-05, No Iterations 1
smoothSolver:  Solving for Uy, Initial residual = 0.01763775164, Final residual = 0.0004195487309, No Iterations 1
smoothSolver:  Solving for Uz, Initial residual = 0.006813540439, Final residual = 0.0001795653665, No Iterations 1
GAMG:  Solving for p, Initial residual = 0.1130335457, Final residual = 0.0009434942761, No Iterations 3
GAMG:  Solving for p, Initial residual = 0.001791875921, Final residual = 1.764923853e-05, No Iterations 4
GAMG:  Solving for p, Initial residual = 0.0003998292553, Final residual = 1.948759684e-06, No Iterations 4
time step continuity errors : sum local = 2.078354571e-08, global = -7.739665668e-09
GAMG:  Solving for p, Initial residual = 0.0765501917, Final residual = 0.0005785686325, No Iterations 3
GAMG:  Solving for p, Initial residual = 0.001133375936, Final residual = 7.432347258e-06, No Iterations 4
GAMG:  Solving for p, Initial residual = 0.0002262543025, Final residual = 4.125523454e-08, No Iterations 7
time step continuity errors : sum local = 4.368821535e-10, global = 1.092786099e-10
PIMPLE: Iteration 3
smoothSolver:  Solving for Ux, Initial residual = 0.002819086817, Final residual = 2.960947187e-07, No Iterations 5
smoothSolver:  Solving for Uy, Initial residual = 0.01927889566, Final residual = 4.187220962e-07, No Iterations 6
smoothSolver:  Solving for Uz, Initial residual = 0.00658614958, Final residual = 4.642775974e-07, No Iterations 6
GAMG:  Solving for p, Initial residual = 0.1583097017, Final residual = 0.001009113842, No Iterations 3
GAMG:  Solving for p, Initial residual = 0.002330731452, Final residual = 1.375273894e-05, No Iterations 5
GAMG:  Solving for p, Initial residual = 0.0003999195009, Final residual = 3.350165863e-06, No Iterations 3
time step continuity errors : sum local = 4.350268265e-08, global = -8.048875569e-09
GAMG:  Solving for p, Initial residual = 0.1104248099, Final residual = 0.0006336269819, No Iterations 3
GAMG:  Solving for p, Initial residual = 0.001459015606, Final residual = 7.007836337e-06, No Iterations 5
GAMG:  Solving for p, Initial residual = 0.0002513640852, Final residual = 5.360564801e-08, No Iterations 7
time step continuity errors : sum local = 6.88701038e-10, global = -4.542753769e-11, cumulative = -1.238015096e-08
smoothSolver:  Solving for omega, Initial residual = 0.006886083389, Final residual = 8.660259416e-07, No Iterations 5
smoothSolver:  Solving for k, Initial residual = 0.08088508246, Final residual = 1.834802228e-07, No Iterations 7
bounding k, min: -0.8212393774 max: 5268.668491 average: 1.610185672
ExecutionTime = 486.837008 s  ClockTime = 487 s

Courant Number mean: 0.6076429174 max: 12.40404849
Time = 0.1s

PIMPLE: Iteration 1
smoothSolver:  Solving for Ux, Initial residual = 0.006922102255, Final residual = 0.0001582665781, No Iterations 1
smoothSolver:  Solving for Uy, Initial residual = 0.03039494129, Final residual = 0.0007379235498, No Iterations 1
smoothSolver:  Solving for Uz, Initial residual = 0.01273063243, Final residual = 0.0003041871453, No Iterations 1
GAMG:  Solving for p, Initial residual = 0.1250651648, Final residual = 0.0009453073134, No Iterations 3
GAMG:  Solving for p, Initial residual = 0.002045804809, Final residual = 1.368395775e-05, No Iterations 4
GAMG:  Solving for p, Initial residual = 0.0004407529113, Final residual = 3.429343787e-06, No Iterations 3
time step continuity errors : sum local = 3.595275037e-08, global = -2.228169101e-09
GAMG:  Solving for p, Initial residual = 0.08512287847, Final residual = 0.0005774937925, No Iterations 3
GAMG:  Solving for p, Initial residual = 0.001266577641, Final residual = 9.044163172e-06, No Iterations 4
GAMG:  Solving for p, Initial residual = 0.0002661737178, Final residual = 8.546303965e-08, No Iterations 7
time step continuity errors : sum local = 8.899052671e-10, global = -3.041920713e-11
PIMPLE: Iteration 2
smoothSolver:  Solving for Ux, Initial residual = 0.003231789818, Final residual = 8.119620385e-05, No Iterations 1
smoothSolver:  Solving for Uy, Initial residual = 0.01781769608, Final residual = 0.0005471836025, No Iterations 1
smoothSolver:  Solving for Uz, Initial residual = 0.006581582781, Final residual = 0.0001766958469, No Iterations 1
GAMG:  Solving for p, Initial residual = 0.1127185415, Final residual = 0.0008573887853, No Iterations 3
GAMG:  Solving for p, Initial residual = 0.001703829822, Final residual = 1.512896945e-05, No Iterations 4
GAMG:  Solving for p, Initial residual = 0.0003652127063, Final residual = 1.546783827e-06, No Iterations 4
time step continuity errors : sum local = 1.626139925e-08, global = -4.80468044e-09
GAMG:  Solving for p, Initial residual = 0.07638929624, Final residual = 0.0005259350226, No Iterations 3
GAMG:  Solving for p, Initial residual = 0.00109084185, Final residual = 7.808406476e-06, No Iterations 4
GAMG:  Solving for p, Initial residual = 0.0002281595793, Final residual = 5.048788295e-08, No Iterations 7
time step continuity errors : sum local = 5.24711047e-10, global = 1.280285473e-10
PIMPLE: Iteration 3
smoothSolver:  Solving for Ux, Initial residual = 0.002822549841, Final residual = 2.783922326e-07, No Iterations 5
smoothSolver:  Solving for Uy, Initial residual = 0.01893551757, Final residual = 3.340385154e-07, No Iterations 6
smoothSolver:  Solving for Uz, Initial residual = 0.006430913529, Final residual = 3.356085034e-07, No Iterations 6
GAMG:  Solving for p, Initial residual = 0.1549430541, Final residual = 0.0009893622917, No Iterations 3
GAMG:  Solving for p, Initial residual = 0.002331256717, Final residual = 1.946825348e-05, No Iterations 4
GAMG:  Solving for p, Initial residual = 0.0004036324906, Final residual = 3.464038703e-06, No Iterations 3
time step continuity errors : sum local = 4.426760552e-08, global = -2.700056551e-09
GAMG:  Solving for p, Initial residual = 0.1063463481, Final residual = 0.0006300076755, No Iterations 3
GAMG:  Solving for p, Initial residual = 0.001462000566, Final residual = 1.379251685e-05, No Iterations 4
GAMG:  Solving for p, Initial residual = 0.000254475111, Final residual = 6.62944731e-08, No Iterations 8
time step continuity errors : sum local = 8.451009538e-10, global = -2.830364846e-10, cumulative = -1.266318744e-08
smoothSolver:  Solving for omega, Initial residual = 0.007105767276, Final residual = 7.9807795e-07, No Iterations 5
smoothSolver:  Solving for k, Initial residual = 0.08233983395, Final residual = 8.534169319e-07, No Iterations 6
bounding k, min: -0.9456187141 max: 4937.653039 average: 1.516021258
ExecutionTime = 492.633066 s  ClockTime = 493 s

volFieldValue tailUpstreamVelocity write:
    volAverage(upstreamTailZone) of magU = 16.52481501

Courant Number mean: 0.6091672003 max: 12.4762689
Time = 0.101s

PIMPLE: Iteration 1
smoothSolver:  Solving for Ux, Initial residual = 0.006856273725, Final residual = 0.0001597031905, No Iterations 1
smoothSolver:  Solving for Uy, Initial residual = 0.0299764368, Final residual = 0.0007406661256, No Iterations 1
smoothSolver:  Solving for Uz, Initial residual = 0.01244263185, Final residual = 0.0003039111203, No Iterations 1
GAMG:  Solving for p, Initial residual = 0.1215404027, Final residual = 0.0009895958866, No Iterations 3
GAMG:  Solving for p, Initial residual = 0.00210259327, Final residual = 1.207751524e-05, No Iterations 4
GAMG:  Solving for p, Initial residual = 0.0004530092644, Final residual = 3.304276792e-06, No Iterations 3
time step continuity errors : sum local = 3.434617953e-08, global = 1.476356572e-09
GAMG:  Solving for p, Initial residual = 0.08362726689, Final residual = 0.0006015236413, No Iterations 3
GAMG:  Solving for p, Initial residual = 0.0013053998, Final residual = 9.720848175e-06, No Iterations 4
GAMG:  Solving for p, Initial residual = 0.0002635336771, Final residual = 5.614487772e-08, No Iterations 7
time step continuity errors : sum local = 5.737360339e-10, global = 1.195836899e-10
PIMPLE: Iteration 2
smoothSolver:  Solving for Ux, Initial residual = 0.003201994902, Final residual = 8.255332425e-05, No Iterations 1
smoothSolver:  Solving for Uy, Initial residual = 0.01752872, Final residual = 0.0005267940915, No Iterations 1
smoothSolver:  Solving for Uz, Initial residual = 0.006522198159, Final residual = 0.000168710693, No Iterations 1
GAMG:  Solving for p, Initial residual = 0.1135007529, Final residual = 0.0009385973817, No Iterations 3
GAMG:  Solving for p, Initial residual = 0.001781799482, Final residual = 1.410171531e-05, No Iterations 4
GAMG:  Solving for p, Initial residual = 0.0003673842923, Final residual = 1.375777282e-06, No Iterations 4
time step continuity errors : sum local = 1.417827063e-08, global = -3.642964957e-09
GAMG:  Solving for p, Initial residual = 0.07642788227, Final residual = 0.0006005477379, No Iterations 3
GAMG:  Solving for p, Initial residual = 0.001178640024, Final residual = 7.763192506e-06, No Iterations 4
GAMG:  Solving for p, Initial residual = 0.0002447938823, Final residual = 3.913329772e-08, No Iterations 7
time step continuity errors : sum local = 3.999541927e-10, global = 8.042945244e-11
PIMPLE: Iteration 3
smoothSolver:  Solving for Ux, Initial residual = 0.00280366948, Final residual = 2.898390671e-07, No Iterations 5
smoothSolver:  Solving for Uy, Initial residual = 0.0187516162, Final residual = 8.809662841e-07, No Iterations 5
smoothSolver:  Solving for Uz, Initial residual = 0.006533659988, Final residual = 8.738227652e-07, No Iterations 5
GAMG:  Solving for p, Initial residual = 0.1562331462, Final residual = 0.0009310574744, No Iterations 3
GAMG:  Solving for p, Initial residual = 0.002291395407, Final residual = 1.102485563e-05, No Iterations 5
GAMG:  Solving for p, Initial residual = 0.0003771650683, Final residual = 2.885926881e-06, No Iterations 3
time step continuity errors : sum local = 3.602418663e-08, global = -4.47138768e-09
GAMG:  Solving for p, Initial residual = 0.1080335526, Final residual = 0.0005866245525, No Iterations 3
GAMG:  Solving for p, Initial residual = 0.001426980501, Final residual = 7.083679871e-06, No Iterations 5
GAMG:  Solving for p, Initial residual = 0.0002343500734, Final residual = 4.331544279e-08, No Iterations 7
time step continuity errors : sum local = 5.387337982e-10, global = -8.87315703e-11, cumulative = -1.275191901e-08
smoothSolver:  Solving for omega, Initial residual = 0.00749212788, Final residual = 7.302499351e-07, No Iterations 5
smoothSolver:  Solving for k, Initial residual = 0.08787423049, Final residual = 4.062675279e-07, No Iterations 6
bounding k, min: -2.243011757 max: 4442.149664 average: 1.427901377
ExecutionTime = 497.775993 s  ClockTime = 499 s

Courant Number mean: 0.6107168258 max: 12.51275639
Time = 0.102s

PIMPLE: Iteration 1
smoothSolver:  Solving for Ux, Initial residual = 0.006808062352, Final residual = 0.0001560763762, No Iterations 1
smoothSolver:  Solving for Uy, Initial residual = 0.02983583897, Final residual = 0.0006925615833, No Iterations 1
smoothSolver:  Solving for Uz, Initial residual = 0.01258522553, Final residual = 0.0002858015543, No Iterations 1
GAMG:  Solving for p, Initial residual = 0.1280864748, Final residual = 0.001065037097, No Iterations 3
GAMG:  Solving for p, Initial residual = 0.002187225045, Final residual = 1.200269163e-05, No Iterations 4
GAMG:  Solving for p, Initial residual = 0.0004783426969, Final residual = 3.249460886e-06, No Iterations 3
time step continuity errors : sum local = 3.292713685e-08, global = 3.740424088e-09
GAMG:  Solving for p, Initial residual = 0.08946225339, Final residual = 0.0006478247837, No Iterations 3
GAMG:  Solving for p, Initial residual = 0.001373076154, Final residual = 1.131070901e-05, No Iterations 4
GAMG:  Solving for p, Initial residual = 0.000290397313, Final residual = 6.605525952e-08, No Iterations 7
time step continuity errors : sum local = 6.574413054e-10, global = 1.56614624e-10
PIMPLE: Iteration 2
smoothSolver:  Solving for Ux, Initial residual = 0.0031417885, Final residual = 7.847132105e-05, No Iterations 1
smoothSolver:  Solving for Uy, Initial residual = 0.01725633183, Final residual = 0.0004095939952, No Iterations 1
smoothSolver:  Solving for Uz, Initial residual = 0.006726615516, Final residual = 0.0001525665196, No Iterations 1
GAMG:  Solving for p, Initial residual = 0.1183925737, Final residual = 0.001083303748, No Iterations 3
GAMG:  Solving for p, Initial residual = 0.00192750185, Final residual = 1.639340376e-05, No Iterations 4
GAMG:  Solving for p, Initial residual = 0.0004174006797, Final residual = 1.626515645e-06, No Iterations 4
time step continuity errors : sum local = 1.646649828e-08, global = -4.484233095e-09
GAMG:  Solving for p, Initial residual = 0.08046295818, Final residual = 0.0006730571852, No Iterations 3
GAMG:  Solving for p, Initial residual = 0.001243102631, Final residual = 1.003857461e-05, No Iterations 4
GAMG:  Solving for p, Initial residual = 0.0002779580019, Final residual = 4.272587316e-08, No Iterations 8
time step continuity errors : sum local = 4.284589621e-10, global = -1.042348647e-10
PIMPLE: Iteration 3
smoothSolver:  Solving for Ux, Initial residual = 0.002764622204, Final residual = 2.674432449e-07, No Iterations 5
smoothSolver:  Solving for Uy, Initial residual = 0.01872422963, Final residual = 7.832099099e-07, No Iterations 5
smoothSolver:  Solving for Uz, Initial residual = 0.00665236489, Final residual = 7.018033132e-07, No Iterations 5
GAMG:  Solving for p, Initial residual = 0.1621955927, Final residual = 0.001016162406, No Iterations 3
GAMG:  Solving for p, Initial residual = 0.002422163915, Final residual = 1.611896531e-05, No Iterations 5
GAMG:  Solving for p, Initial residual = 0.0004313123912, Final residual = 3.609658776e-06, No Iterations 3
time step continuity errors : sum local = 4.398621017e-08, global = 2.384267865e-09
GAMG:  Solving for p, Initial residual = 0.1125002178, Final residual = 0.0006451788299, No Iterations 3
GAMG:  Solving for p, Initial residual = 0.001567625959, Final residual = 1.103532779e-05, No Iterations 4
GAMG:  Solving for p, Initial residual = 0.0002936286528, Final residual = 8.259720015e-08, No Iterations 7
time step continuity errors : sum local = 9.887586528e-10, global = 6.769971189e-11, cumulative = -1.26842193e-08
smoothSolver:  Solving for omega, Initial residual = 0.007724737668, Final residual = 9.728095598e-07, No Iterations 5
smoothSolver:  Solving for k, Initial residual = 0.09022686832, Final residual = 6.200411459e-07, No Iterations 6
bounding k, min: -0.7987178831 max: 3870.913034 average: 1.338348554
ExecutionTime = 505.563107 s  ClockTime = 526 s

Courant Number mean: 0.6123973719 max: 12.54643522
Time = 0.103s

PIMPLE: Iteration 1
smoothSolver:  Solving for Ux, Initial residual = 0.006738929684, Final residual = 0.000151459161, No Iterations 1
smoothSolver:  Solving for Uy, Initial residual = 0.03011709802, Final residual = 0.00066871658, No Iterations 1
smoothSolver:  Solving for Uz, Initial residual = 0.01256898139, Final residual = 0.0002596291726, No Iterations 1
GAMG:  Solving for p, Initial residual = 0.1332991616, Final residual = 0.001252204594, No Iterations 3
GAMG:  Solving for p, Initial residual = 0.002343562969, Final residual = 2.046152738e-05, No Iterations 4
GAMG:  Solving for p, Initial residual = 0.0005465490322, Final residual = 4.583949751e-06, No Iterations 3
time step continuity errors : sum local = 4.577242822e-08, global = 3.097046905e-09
GAMG:  Solving for p, Initial residual = 0.09104964514, Final residual = 0.0007724248311, No Iterations 3
GAMG:  Solving for p, Initial residual = 0.001470209043, Final residual = 1.099878846e-05, No Iterations 4
GAMG:  Solving for p, Initial residual = 0.0003246110922, Final residual = 5.883950375e-08, No Iterations 7
time step continuity errors : sum local = 5.826948016e-10, global = 1.249344567e-10
PIMPLE: Iteration 2
smoothSolver:  Solving for Ux, Initial residual = 0.003139906982, Final residual = 7.487360915e-05, No Iterations 1
smoothSolver:  Solving for Uy, Initial residual = 0.01766891252, Final residual = 0.0003681844894, No Iterations 1
smoothSolver:  Solving for Uz, Initial residual = 0.006570915936, Final residual = 0.0001410373249, No Iterations 1
GAMG:  Solving for p, Initial residual = 0.1197335269, Final residual = 0.000463724928, No Iterations 4
GAMG:  Solving for p, Initial residual = 0.001514597816, Final residual = 8.968095907e-06, No Iterations 4
GAMG:  Solving for p, Initial residual = 0.000259954893, Final residual = 1.177883265e-06, No Iterations 4
time step continuity errors : sum local = 1.182265144e-08, global = 2.742993624e-10
GAMG:  Solving for p, Initial residual = 0.08088269541, Final residual = 0.0007515627216, No Iterations 3
GAMG:  Solving for p, Initial residual = 0.001284096773, Final residual = 1.081510913e-05, No Iterations 4
GAMG:  Solving for p, Initial residual = 0.0002788941341, Final residual = 4.407367574e-08, No Iterations 8
time step continuity errors : sum local = 4.379837755e-10, global = -1.248342944e-10
PIMPLE: Iteration 3
smoothSolver:  Solving for Ux, Initial residual = 0.002739685107, Final residual = 9.14426258e-07, No Iterations 4
smoothSolver:  Solving for Uy, Initial residual = 0.01851628259, Final residual = 7.392824636e-07, No Iterations 5
smoothSolver:  Solving for Uz, Initial residual = 0.006525828702, Final residual = 6.233228602e-07, No Iterations 5
GAMG:  Solving for p, Initial residual = 0.1575682879, Final residual = 0.001007716236, No Iterations 3
GAMG:  Solving for p, Initial residual = 0.002460656217, Final residual = 1.666278509e-05, No Iterations 5
GAMG:  Solving for p, Initial residual = 0.000434347492, Final residual = 3.58331492e-06, No Iterations 3
time step continuity errors : sum local = 4.323375296e-08, global = 2.464299479e-09
GAMG:  Solving for p, Initial residual = 0.1089286435, Final residual = 0.0006136731531, No Iterations 3
GAMG:  Solving for p, Initial residual = 0.001508569857, Final residual = 1.303441962e-05, No Iterations 4
GAMG:  Solving for p, Initial residual = 0.0002695893201, Final residual = 5.19043472e-08, No Iterations 7
time step continuity errors : sum local = 6.231918424e-10, global = -9.082851494e-11, cumulative = -1.277504781e-08
smoothSolver:  Solving for omega, Initial residual = 0.007953858649, Final residual = 8.384532452e-07, No Iterations 5
smoothSolver:  Solving for k, Initial residual = 0.09367036097, Final residual = 9.75712603e-07, No Iterations 6
bounding k, min: -1.244035892 max: 3287.45313 average: 1.258425112
ExecutionTime = 530.053861 s  ClockTime = 642 s

Courant Number mean: 0.6142884029 max: 12.55133593
Time = 0.104s

PIMPLE: Iteration 1
