/*---------------------------------------------------------------------------*\
  =========                 |
  \\      /  F ield         | OpenFOAM: The Open Source CFD Toolbox
   \\    /   O peration     | Website:  https://openfoam.org
    \\  /    A nd           | Version:  13
     \\/     M anipulation  |
\*---------------------------------------------------------------------------*/
Build  : 13-cde978a97c93
Exec   : foamRun -solver incompressibleFluid -parallel
Date   : Dec 29 2025
Time   : 13:08:43
Host   : "Laptopawelke"
PID    : 4062
I/O    : uncollated
Case   : /home/a1922573/ADOT/AUDBF-ADOT/Final_ADOT_program/Aerodynamics_Simulation
nProcs : 4
Slaves : 
3
(
"Laptopawelke.4063"
"Laptopawelke.4064"
"Laptopawelke.4065"
)

Pstream initialised with:
    floatTransfer      : false
    nProcsSimpleSum    : 0
    commsType          : nonBlocking
    polling iterations : 0
sigFpe : Enabling floating point exception trapping (FOAM_SIGFPE).
fileModificationChecking : Monitoring run-time modified files using timeStampMaster (fileModificationSkew 10)
allowSystemOperations : Allowing user-supplied system call operations

// * * * * * * * * * * * * * * * * * * * * * * * * * * * * * * * * * * * * * //
Create time

Create mesh for time = 0

Selecting solver incompressibleFluid
Selecting viscosity model Newtonian
Selecting turbulence model type RAS
    Selecting RAS turbulence model kOmegaSST
No MRF models present

Selecting patchDistMethod meshWave
Courant Number mean: 0.2198003786 max: 10.89470492

PIMPLE: No convergence criteria found


PIMPLE: Operating solver in transient mode with 1 outer corrector
PIMPLE: Operating solver in PISO mode



Starting time loop

volFieldValue tailUpstreamVelocity read:
    number of cells = 1279
    volume = 0.0005963062711
    operation = volAverage

volFieldValue tailUpstreamVelocity write:
    volAverage(upstreamTailZone) of magU = 5.820532918

Courant Number mean: 0.2198003786 max: 10.89470492
Time = 0.001s

smoothSolver:  Solving for Ux, Initial residual = 0.2107966803, Final residual = 2.416640869e-07, No Iterations 4
smoothSolver:  Solving for Uy, Initial residual = 0.1579603942, Final residual = 3.668157139e-07, No Iterations 4
smoothSolver:  Solving for Uz, Initial residual = 0.2574709853, Final residual = 2.00471518e-07, No Iterations 4
GAMG:  Solving for p, Initial residual = 0.1190773644, Final residual = 0.0006292133825, No Iterations 5
GAMG:  Solving for p, Initial residual = 0.02764225328, Final residual = 0.0001238454106, No Iterations 4
GAMG:  Solving for p, Initial residual = 0.001817938781, Final residual = 9.755684251e-06, No Iterations 4
time step continuity errors : sum local = 2.313144753e-07, global = 2.070881314e-08
GAMG:  Solving for p, Initial residual = 0.112837142, Final residual = 0.0005820947465, No Iterations 5
GAMG:  Solving for p, Initial residual = 0.01650018148, Final residual = 8.701734981e-05, No Iterations 4
GAMG:  Solving for p, Initial residual = 0.001057857887, Final residual = 9.688180785e-08, No Iterations 10
time step continuity errors : sum local = 2.560623313e-09, global = 2.329805139e-10, cumulative = 2.329805139e-10
smoothSolver:  Solving for omega, Initial residual = 0.003422002139, Final residual = 4.41414325e-07, No Iterations 5
smoothSolver:  Solving for k, Initial residual = 1, Final residual = 4.795438102e-07, No Iterations 11
ExecutionTime = 2.488307 s  ClockTime = 3 s

Courant Number mean: 0.2283556402 max: 6.839218764
Time = 0.002s

smoothSolver:  Solving for Ux, Initial residual = 0.1273582442, Final residual = 9.372401269e-07, No Iterations 4
smoothSolver:  Solving for Uy, Initial residual = 0.1225465659, Final residual = 1.052206106e-07, No Iterations 5
smoothSolver:  Solving for Uz, Initial residual = 0.1931191663, Final residual = 5.562985442e-07, No Iterations 4
GAMG:  Solving for p, Initial residual = 0.1722640025, Final residual = 0.0007837576513, No Iterations 5
GAMG:  Solving for p, Initial residual = 0.01501116895, Final residual = 0.0001375565533, No Iterations 3
GAMG:  Solving for p, Initial residual = 0.0008638172639, Final residual = 4.81696298e-06, No Iterations 4
time step continuity errors : sum local = 2.740877133e-07, global = 2.555263711e-08
GAMG:  Solving for p, Initial residual = 0.1855840465, Final residual = 0.0008510162633, No Iterations 5
GAMG:  Solving for p, Initial residual = 0.01081562682, Final residual = 0.0001056730526, No Iterations 3
GAMG:  Solving for p, Initial residual = 0.0006412184445, Final residual = 8.71410833e-08, No Iterations 9
time step continuity errors : sum local = 4.500995102e-09, global = 1.608692167e-09, cumulative = 1.84167268e-09
smoothSolver:  Solving for omega, Initial residual = 0.004215394216, Final residual = 5.103387461e-07, No Iterations 5
smoothSolver:  Solving for k, Initial residual = 0.03477981187, Final residual = 7.484356221e-07, No Iterations 6
ExecutionTime = 3.437303 s  ClockTime = 4 s

Courant Number mean: 0.2372222718 max: 6.521095833
Time = 0.003s

smoothSolver:  Solving for Ux, Initial residual = 0.08789060766, Final residual = 4.344514643e-07, No Iterations 5
smoothSolver:  Solving for Uy, Initial residual = 0.08660814014, Final residual = 2.382123901e-07, No Iterations 5
smoothSolver:  Solving for Uz, Initial residual = 0.1299549859, Final residual = 2.854280578e-07, No Iterations 5
GAMG:  Solving for p, Initial residual = 0.2373293706, Final residual = 0.00117582551, No Iterations 5
GAMG:  Solving for p, Initial residual = 0.009869546734, Final residual = 4.336746592e-05, No Iterations 4
GAMG:  Solving for p, Initial residual = 0.0005874820072, Final residual = 5.764523393e-06, No Iterations 3
time step continuity errors : sum local = 4.551273925e-07, global = 1.979754449e-08
GAMG:  Solving for p, Initial residual = 0.3225072581, Final residual = 0.001707719288, No Iterations 5
GAMG:  Solving for p, Initial residual = 0.006795827028, Final residual = 2.968604783e-05, No Iterations 4
GAMG:  Solving for p, Initial residual = 0.0004219090619, Final residual = 6.591241687e-08, No Iterations 9
time step continuity errors : sum local = 4.931707117e-09, global = 1.649115631e-09, cumulative = 3.490788311e-09
smoothSolver:  Solving for omega, Initial residual = 0.004277928073, Final residual = 6.212018833e-07, No Iterations 5
smoothSolver:  Solving for k, Initial residual = 0.0177670924, Final residual = 6.1289552e-07, No Iterations 6
ExecutionTime = 4.475207 s  ClockTime = 5 s

Courant Number mean: 0.246480619 max: 6.062778359
Time = 0.004s

smoothSolver:  Solving for Ux, Initial residual = 0.07624038487, Final residual = 5.323451852e-07, No Iterations 6
smoothSolver:  Solving for Uy, Initial residual = 0.07001325212, Final residual = 3.413297072e-07, No Iterations 6
smoothSolver:  Solving for Uz, Initial residual = 0.08486377264, Final residual = 2.455566306e-07, No Iterations 6
GAMG:  Solving for p, Initial residual = 0.3655077222, Final residual = 0.001642067068, No Iterations 5
GAMG:  Solving for p, Initial residual = 0.007107480391, Final residual = 3.051596694e-05, No Iterations 4
GAMG:  Solving for p, Initial residual = 0.0004489759652, Final residual = 4.439764297e-06, No Iterations 3
time step continuity errors : sum local = 2.902029077e-07, global = 1.939878906e-08
GAMG:  Solving for p, Initial residual = 0.2005840405, Final residual = 0.0009354796147, No Iterations 5
GAMG:  Solving for p, Initial residual = 0.004804751616, Final residual = 2.235614325e-05, No Iterations 4
GAMG:  Solving for p, Initial residual = 0.0003166023886, Final residual = 6.676258959e-08, No Iterations 9
time step continuity errors : sum local = 4.205740199e-09, global = 1.428776592e-09, cumulative = 4.919564903e-09
smoothSolver:  Solving for omega, Initial residual = 0.004144041748, Final residual = 7.245257469e-07, No Iterations 5
smoothSolver:  Solving for k, Initial residual = 0.01214647012, Final residual = 5.309677921e-07, No Iterations 6
ExecutionTime = 5.545416 s  ClockTime = 6 s

Courant Number mean: 0.2587063552 max: 9.986822802
Time = 0.005s

smoothSolver:  Solving for Ux, Initial residual = 0.07618750682, Final residual = 9.527751433e-07, No Iterations 7
smoothSolver:  Solving for Uy, Initial residual = 0.08038289985, Final residual = 3.63543541e-07, No Iterations 7
smoothSolver:  Solving for Uz, Initial residual = 0.0762947105, Final residual = 1.657241326e-07, No Iterations 7
GAMG:  Solving for p, Initial residual = 0.3281798813, Final residual = 0.002919359645, No Iterations 4
GAMG:  Solving for p, Initial residual = 0.004803304783, Final residual = 2.955068056e-05, No Iterations 4
GAMG:  Solving for p, Initial residual = 0.0005554803681, Final residual = 4.853010078e-06, No Iterations 3
time step continuity errors : sum local = 2.030792e-07, global = 4.672227573e-09
GAMG:  Solving for p, Initial residual = 0.1944113972, Final residual = 0.001633925076, No Iterations 4
GAMG:  Solving for p, Initial residual = 0.003124737154, Final residual = 2.098299e-05, No Iterations 4
GAMG:  Solving for p, Initial residual = 0.0003494576191, Final residual = 4.940836337e-08, No Iterations 9
time step continuity errors : sum local = 2.00183383e-09, global = 6.599413086e-10, cumulative = 5.579506212e-09
smoothSolver:  Solving for omega, Initial residual = 0.002920822168, Final residual = 8.196636573e-07, No Iterations 5
smoothSolver:  Solving for k, Initial residual = 0.009667577888, Final residual = 5.482309415e-07, No Iterations 6
ExecutionTime = 6.538025 s  ClockTime = 7 s

Courant Number mean: 0.2736809829 max: 16.00356218
Time = 0.006s

smoothSolver:  Solving for Ux, Initial residual = 0.07677152752, Final residual = 9.043814066e-07, No Iterations 8
smoothSolver:  Solving for Uy, Initial residual = 0.08712734397, Final residual = 8.116670894e-07, No Iterations 7
smoothSolver:  Solving for Uz, Initial residual = 0.08354634242, Final residual = 4.983722701e-07, No Iterations 8
GAMG:  Solving for p, Initial residual = 0.3293117059, Final residual = 0.003272126499, No Iterations 4
GAMG:  Solving for p, Initial residual = 0.00703654161, Final residual = 5.027818087e-05, No Iterations 5
GAMG:  Solving for p, Initial residual = 0.001095230966, Final residual = 9.991277997e-06, No Iterations 3
time step continuity errors : sum local = 2.840390181e-07, global = -7.578870871e-08
GAMG:  Solving for p, Initial residual = 0.2390019605, Final residual = 0.0008429767099, No Iterations 5
GAMG:  Solving for p, Initial residual = 0.004041786115, Final residual = 2.68802107e-05, No Iterations 4
GAMG:  Solving for p, Initial residual = 0.0003985140967, Final residual = 8.147733872e-08, No Iterations 9
time step continuity errors : sum local = 2.180077234e-09, global = -5.677309633e-10, cumulative = 5.011775249e-09
smoothSolver:  Solving for omega, Initial residual = 0.002526152199, Final residual = 9.741246238e-07, No Iterations 5
smoothSolver:  Solving for k, Initial residual = 0.008497706218, Final residual = 6.405801576e-07, No Iterations 6
ExecutionTime = 7.567087 s  ClockTime = 8 s

Courant Number mean: 0.2898301418 max: 22.45595248
Time = 0.007s

smoothSolver:  Solving for Ux, Initial residual = 0.07822449342, Final residual = 6.041600859e-07, No Iterations 9
smoothSolver:  Solving for Uy, Initial residual = 0.09742446587, Final residual = 8.699331361e-07, No Iterations 8
smoothSolver:  Solving for Uz, Initial residual = 0.09376371581, Final residual = 7.715431037e-07, No Iterations 9
GAMG:  Solving for p, Initial residual = 0.4073376753, Final residual = 0.001822069297, No Iterations 5
GAMG:  Solving for p, Initial residual = 0.005425095613, Final residual = 5.002318325e-05, No Iterations 4
GAMG:  Solving for p, Initial residual = 0.000513385056, Final residual = 3.714411499e-06, No Iterations 4
time step continuity errors : sum local = 1.46371048e-07, global = -9.555033997e-10
GAMG:  Solving for p, Initial residual = 0.2953876753, Final residual = 0.001090821502, No Iterations 5
GAMG:  Solving for p, Initial residual = 0.003589011206, Final residual = 2.944652934e-05, No Iterations 4
GAMG:  Solving for p, Initial residual = 0.0003294309791, Final residual = 5.047499871e-08, No Iterations 9
time step continuity errors : sum local = 1.824209849e-09, global = -5.42093588e-10, cumulative = 4.469681661e-09
smoothSolver:  Solving for omega, Initial residual = 0.00235234065, Final residual = 9.647353127e-07, No Iterations 5
smoothSolver:  Solving for k, Initial residual = 0.007439714892, Final residual = 6.211084913e-07, No Iterations 6
ExecutionTime = 8.825922 s  ClockTime = 9 s

Courant Number mean: 0.2982232855 max: 21.13647814
Time = 0.008s

smoothSolver:  Solving for Ux, Initial residual = 0.06816407851, Final residual = 5.848299291e-07, No Iterations 8
smoothSolver:  Solving for Uy, Initial residual = 0.082545086, Final residual = 3.379525721e-07, No Iterations 9
smoothSolver:  Solving for Uz, Initial residual = 0.07311161395, Final residual = 6.502166869e-07, No Iterations 9
GAMG:  Solving for p, Initial residual = 0.4200927914, Final residual = 0.001660451357, No Iterations 5
GAMG:  Solving for p, Initial residual = 0.004407467255, Final residual = 2.932835761e-05, No Iterations 5
GAMG:  Solving for p, Initial residual = 0.0004354115123, Final residual = 4.160894519e-06, No Iterations 3
time step continuity errors : sum local = 1.89985244e-07, global = -1.954571192e-08
GAMG:  Solving for p, Initial residual = 0.2637881208, Final residual = 0.0009670370169, No Iterations 5
GAMG:  Solving for p, Initial residual = 0.002776037484, Final residual = 1.615582133e-05, No Iterations 5
GAMG:  Solving for p, Initial residual = 0.0002634506791, Final residual = 6.563155484e-08, No Iterations 8
time step continuity errors : sum local = 2.741537048e-09, global = -8.295125638e-10, cumulative = 3.640169097e-09
smoothSolver:  Solving for omega, Initial residual = 0.002258080755, Final residual = 7.172266797e-07, No Iterations 5
smoothSolver:  Solving for k, Initial residual = 0.006656409772, Final residual = 5.197816718e-07, No Iterations 6
bounding k, min: -0.006087987834 max: 0.5983213166 average: 0.02760869131
ExecutionTime = 9.972358 s  ClockTime = 10 s

Courant Number mean: 0.3010713291 max: 18.81309606
Time = 0.009s

smoothSolver:  Solving for Ux, Initial residual = 0.05360861165, Final residual = 8.626851542e-07, No Iterations 8
smoothSolver:  Solving for Uy, Initial residual = 0.06569156421, Final residual = 8.851243861e-07, No Iterations 8
smoothSolver:  Solving for Uz, Initial residual = 0.06230672782, Final residual = 7.153884622e-07, No Iterations 8
GAMG:  Solving for p, Initial residual = 0.3226253034, Final residual = 0.001618418592, No Iterations 5
GAMG:  Solving for p, Initial residual = 0.003891810575, Final residual = 3.281788164e-05, No Iterations 4
GAMG:  Solving for p, Initial residual = 0.0003528577988, Final residual = 2.652270163e-06, No Iterations 4
time step continuity errors : sum local = 1.144164245e-07, global = -1.384239919e-09
GAMG:  Solving for p, Initial residual = 0.1858357979, Final residual = 0.0007815712867, No Iterations 5
GAMG:  Solving for p, Initial residual = 0.002452735877, Final residual = 1.915564501e-05, No Iterations 4
GAMG:  Solving for p, Initial residual = 0.0002265730231, Final residual = 4.212816112e-08, No Iterations 9
time step continuity errors : sum local = 1.696602703e-09, global = -4.516220533e-10, cumulative = 3.188547044e-09
smoothSolver:  Solving for omega, Initial residual = 0.002171713732, Final residual = 6.638422243e-07, No Iterations 5
smoothSolver:  Solving for k, Initial residual = 0.006157790874, Final residual = 5.267208067e-07, No Iterations 6
bounding k, min: -0.0124333123 max: 1.07901339 average: 0.02861788227
ExecutionTime = 10.96933 s  ClockTime = 11 s

Courant Number mean: 0.3081344702 max: 19.3058921
Time = 0.01s

smoothSolver:  Solving for Ux, Initial residual = 0.0478986911, Final residual = 6.42015496e-07, No Iterations 8
smoothSolver:  Solving for Uy, Initial residual = 0.06011510163, Final residual = 6.357524188e-07, No Iterations 8
smoothSolver:  Solving for Uz, Initial residual = 0.05383807501, Final residual = 6.413671428e-07, No Iterations 8
GAMG:  Solving for p, Initial residual = 0.2955620643, Final residual = 0.001484165989, No Iterations 5
GAMG:  Solving for p, Initial residual = 0.003007193747, Final residual = 1.946096427e-05, No Iterations 5
GAMG:  Solving for p, Initial residual = 0.0002855604042, Final residual = 2.561298252e-06, No Iterations 3
time step continuity errors : sum local = 1.020789529e-07, global = -1.240281666e-08
GAMG:  Solving for p, Initial residual = 0.1737363326, Final residual = 0.0006754436766, No Iterations 5
GAMG:  Solving for p, Initial residual = 0.00256218342, Final residual = 2.010262107e-05, No Iterations 4
GAMG:  Solving for p, Initial residual = 0.0002315835942, Final residual = 7.63220133e-08, No Iterations 8
time step continuity errors : sum local = 3.126459702e-09, global = -5.626903459e-11, cumulative = 3.132278009e-09
smoothSolver:  Solving for omega, Initial residual = 0.002105623597, Final residual = 6.475264246e-07, No Iterations 5
smoothSolver:  Solving for k, Initial residual = 0.005873720752, Final residual = 6.258698953e-07, No Iterations 6
ExecutionTime = 12.431196 s  ClockTime = 13 s

volFieldValue tailUpstreamVelocity write:
    volAverage(upstreamTailZone) of magU = 6.970532393

Courant Number mean: 0.3166370066 max: 19.43374621
Time = 0.011s

smoothSolver:  Solving for Ux, Initial residual = 0.04365468349, Final residual = 2.832792792e-07, No Iterations 8
smoothSolver:  Solving for Uy, Initial residual = 0.05462783141, Final residual = 5.633283637e-07, No Iterations 8
smoothSolver:  Solving for Uz, Initial residual = 0.05101271289, Final residual = 6.807128089e-07, No Iterations 8
GAMG:  Solving for p, Initial residual = 0.2474077238, Final residual = 0.00199038743, No Iterations 4
GAMG:  Solving for p, Initial residual = 0.003100834501, Final residual = 1.931122426e-05, No Iterations 5
GAMG:  Solving for p, Initial residual = 0.0004724919774, Final residual = 3.729259408e-06, No Iterations 3
time step continuity errors : sum local = 1.397422053e-07, global = -2.880835909e-08
GAMG:  Solving for p, Initial residual = 0.1567537673, Final residual = 0.0009518258144, No Iterations 4
GAMG:  Solving for p, Initial residual = 0.001927950125, Final residual = 1.298343103e-05, No Iterations 4
GAMG:  Solving for p, Initial residual = 0.0002713109035, Final residual = 7.241701282e-08, No Iterations 8
time step continuity errors : sum local = 2.530935906e-09, global = -8.391466603e-11, cumulative = 3.048363343e-09
smoothSolver:  Solving for omega, Initial residual = 0.001984407655, Final residual = 5.172429347e-07, No Iterations 5
smoothSolver:  Solving for k, Initial residual = 0.005641338332, Final residual = 6.36803524e-07, No Iterations 6
bounding k, min: -0.004225015513 max: 0.7631734832 average: 0.03075564566
ExecutionTime = 13.702209 s  ClockTime = 14 s

Courant Number mean: 0.3257505615 max: 19.20276581
Time = 0.012s

smoothSolver:  Solving for Ux, Initial residual = 0.04066851024, Final residual = 9.494467694e-07, No Iterations 6
smoothSolver:  Solving for Uy, Initial residual = 0.05621400787, Final residual = 5.301595843e-07, No Iterations 8
smoothSolver:  Solving for Uz, Initial residual = 0.05196586002, Final residual = 5.994868777e-07, No Iterations 8
GAMG:  Solving for p, Initial residual = 0.2219830425, Final residual = 0.001230718777, No Iterations 4
GAMG:  Solving for p, Initial residual = 0.002744382219, Final residual = 1.445929124e-05, No Iterations 5
GAMG:  Solving for p, Initial residual = 0.0002806956407, Final residual = 2.46741551e-06, No Iterations 3
time step continuity errors : sum local = 8.802449226e-08, global = -1.806205198e-08
GAMG:  Solving for p, Initial residual = 0.1399564975, Final residual = 0.0008022442243, No Iterations 4
GAMG:  Solving for p, Initial residual = 0.001688689671, Final residual = 6.928900717e-06, No Iterations 5
GAMG:  Solving for p, Initial residual = 0.0001770499551, Final residual = 7.406824667e-08, No Iterations 7
time step continuity errors : sum local = 2.708171066e-09, global = -5.827101942e-10, cumulative = 2.465653149e-09
smoothSolver:  Solving for omega, Initial residual = 0.001935677714, Final residual = 6.012615003e-07, No Iterations 5
smoothSolver:  Solving for k, Initial residual = 0.005459231058, Final residual = 7.7967949e-07, No Iterations 6
bounding k, min: -0.001139879997 max: 1.06117263 average: 0.03189730143
ExecutionTime = 15.047521 s  ClockTime = 15 s

Courant Number mean: 0.3356104804 max: 18.3479244
Time = 0.013s

smoothSolver:  Solving for Ux, Initial residual = 0.03956987949, Final residual = 7.678889067e-07, No Iterations 7
smoothSolver:  Solving for Uy, Initial residual = 0.05883362355, Final residual = 4.976662301e-07, No Iterations 8
smoothSolver:  Solving for Uz, Initial residual = 0.05089152162, Final residual = 3.46353967e-07, No Iterations 8
GAMG:  Solving for p, Initial residual = 0.202277573, Final residual = 0.0008186166847, No Iterations 4
GAMG:  Solving for p, Initial residual = 0.002518192097, Final residual = 1.078104419e-05, No Iterations 4
GAMG:  Solving for p, Initial residual = 0.000199681844, Final residual = 1.367588563e-06, No Iterations 3
time step continuity errors : sum local = 4.627850843e-08, global = -1.182431361e-09
GAMG:  Solving for p, Initial residual = 0.1277370027, Final residual = 0.0005333817353, No Iterations 4
GAMG:  Solving for p, Initial residual = 0.001321713383, Final residual = 7.013186187e-06, No Iterations 5
GAMG:  Solving for p, Initial residual = 0.0001327814021, Final residual = 5.975009259e-08, No Iterations 7
time step continuity errors : sum local = 2.088532103e-09, global = -4.498332095e-10, cumulative = 2.015819939e-09
smoothSolver:  Solving for omega, Initial residual = 0.001896371445, Final residual = 5.901985385e-07, No Iterations 5
smoothSolver:  Solving for k, Initial residual = 0.005216700179, Final residual = 7.507995449e-07, No Iterations 6
ExecutionTime = 16.419623 s  ClockTime = 17 s

Courant Number mean: 0.3456233279 max: 17.21532625
Time = 0.014s

smoothSolver:  Solving for Ux, Initial residual = 0.03895025015, Final residual = 8.230606093e-07, No Iterations 7
smoothSolver:  Solving for Uy, Initial residual = 0.05958636949, Final residual = 5.157942352e-07, No Iterations 8
smoothSolver:  Solving for Uz, Initial residual = 0.04943492941, Final residual = 3.63014243e-07, No Iterations 7
GAMG:  Solving for p, Initial residual = 0.1927075658, Final residual = 0.0009545182945, No Iterations 4
GAMG:  Solving for p, Initial residual = 0.002507732053, Final residual = 1.126743379e-05, No Iterations 4
GAMG:  Solving for p, Initial residual = 0.0002160383314, Final residual = 1.513281354e-06, No Iterations 3
time step continuity errors : sum local = 5.148887742e-08, global = 3.880565993e-09
GAMG:  Solving for p, Initial residual = 0.123091129, Final residual = 0.0005648405785, No Iterations 4
GAMG:  Solving for p, Initial residual = 0.001207723281, Final residual = 6.69937808e-06, No Iterations 5
GAMG:  Solving for p, Initial residual = 0.0001272893323, Final residual = 5.255830126e-08, No Iterations 8
time step continuity errors : sum local = 1.817566526e-09, global = -6.483316762e-10, cumulative = 1.367488263e-09
smoothSolver:  Solving for omega, Initial residual = 0.00187351585, Final residual = 4.987265872e-07, No Iterations 5
smoothSolver:  Solving for k, Initial residual = 0.004894787359, Final residual = 6.127226257e-07, No Iterations 6
ExecutionTime = 17.76078 s  ClockTime = 18 s

Courant Number mean: 0.355668208 max: 17.42299473
Time = 0.015s

smoothSolver:  Solving for Ux, Initial residual = 0.0387198263, Final residual = 6.028810564e-07, No Iterations 7
smoothSolver:  Solving for Uy, Initial residual = 0.05791589239, Final residual = 6.731373364e-07, No Iterations 8
smoothSolver:  Solving for Uz, Initial residual = 0.0487213274, Final residual = 4.946151351e-07, No Iterations 7
GAMG:  Solving for p, Initial residual = 0.1855233076, Final residual = 0.001025122989, No Iterations 4
GAMG:  Solving for p, Initial residual = 0.002390730865, Final residual = 1.738121449e-05, No Iterations 4
GAMG:  Solving for p, Initial residual = 0.0001970581445, Final residual = 1.049657056e-06, No Iterations 4
time step continuity errors : sum local = 3.668864438e-08, global = -1.156070331e-08
GAMG:  Solving for p, Initial residual = 0.1173333737, Final residual = 0.0006901881901, No Iterations 4
GAMG:  Solving for p, Initial residual = 0.001264714396, Final residual = 4.724962252e-06, No Iterations 7
GAMG:  Solving for p, Initial residual = 0.0001891344589, Final residual = 7.782277469e-08, No Iterations 8
time step continuity errors : sum local = 2.793856349e-09, global = -9.844034968e-10, cumulative = 3.830847664e-10
smoothSolver:  Solving for omega, Initial residual = 0.001864368943, Final residual = 4.441233614e-07, No Iterations 5
smoothSolver:  Solving for k, Initial residual = 0.00469331089, Final residual = 6.224469836e-07, No Iterations 6
bounding k, min: -0.00598910486 max: 1.061328693 average: 0.03550131184
ExecutionTime = 19.26208 s  ClockTime = 20 s

Courant Number mean: 0.3661358128 max: 17.41663548
Time = 0.016s

smoothSolver:  Solving for Ux, Initial residual = 0.03865467816, Final residual = 7.07701878e-07, No Iterations 6
smoothSolver:  Solving for Uy, Initial residual = 0.05661847736, Final residual = 9.366543186e-07, No Iterations 8
smoothSolver:  Solving for Uz, Initial residual = 0.04719286163, Final residual = 5.285719014e-07, No Iterations 7
GAMG:  Solving for p, Initial residual = 0.176914319, Final residual = 0.0009392315914, No Iterations 4
GAMG:  Solving for p, Initial residual = 0.002123480023, Final residual = 1.848916319e-05, No Iterations 4
GAMG:  Solving for p, Initial residual = 0.0001843468019, Final residual = 1.215473832e-06, No Iterations 4
time step continuity errors : sum local = 4.396323407e-08, global = -1.381448906e-08
GAMG:  Solving for p, Initial residual = 0.1120207336, Final residual = 0.0006781957198, No Iterations 4
GAMG:  Solving for p, Initial residual = 0.001202718795, Final residual = 5.169313017e-06, No Iterations 7
GAMG:  Solving for p, Initial residual = 0.0001902369481, Final residual = 8.531493004e-08, No Iterations 8
time step continuity errors : sum local = 3.167861696e-09, global = -1.131788389e-09, cumulative = -7.487036224e-10
smoothSolver:  Solving for omega, Initial residual = 0.001864832981, Final residual = 4.575298126e-07, No Iterations 5
smoothSolver:  Solving for k, Initial residual = 0.004636827289, Final residual = 5.24999479e-07, No Iterations 6
ExecutionTime = 20.653704 s  ClockTime = 21 s

Courant Number mean: 0.3764465711 max: 17.50755938
Time = 0.017s

smoothSolver:  Solving for Ux, Initial residual = 0.03757191895, Final residual = 6.765857022e-07, No Iterations 6
smoothSolver:  Solving for Uy, Initial residual = 0.05499607376, Final residual = 3.071093615e-07, No Iterations 9
smoothSolver:  Solving for Uz, Initial residual = 0.04615803683, Final residual = 9.296446235e-07, No Iterations 7
GAMG:  Solving for p, Initial residual = 0.1742290978, Final residual = 0.0007388384212, No Iterations 4
GAMG:  Solving for p, Initial residual = 0.001694815201, Final residual = 1.492158637e-05, No Iterations 4
GAMG:  Solving for p, Initial residual = 0.0001605380572, Final residual = 1.023557131e-06, No Iterations 4
time step continuity errors : sum local = 3.906183336e-08, global = -1.219612999e-08
GAMG:  Solving for p, Initial residual = 0.1091423374, Final residual = 0.0005410939335, No Iterations 4
GAMG:  Solving for p, Initial residual = 0.0009728557227, Final residual = 4.412490834e-06, No Iterations 7
GAMG:  Solving for p, Initial residual = 0.0001596384652, Final residual = 6.83303789e-08, No Iterations 8
time step continuity errors : sum local = 2.638902973e-09, global = -1.005175977e-09, cumulative = -1.753879599e-09
smoothSolver:  Solving for omega, Initial residual = 0.00184135445, Final residual = 3.569650256e-07, No Iterations 5
smoothSolver:  Solving for k, Initial residual = 0.004599485805, Final residual = 4.379357708e-07, No Iterations 6
bounding k, min: -0.01032010126 max: 1.059698165 average: 0.03797132904
ExecutionTime = 21.942352 s  ClockTime = 22 s

Courant Number mean: 0.386254259 max: 17.69172384
Time = 0.018s

smoothSolver:  Solving for Ux, Initial residual = 0.03624464544, Final residual = 9.744144976e-07, No Iterations 6
smoothSolver:  Solving for Uy, Initial residual = 0.05220605985, Final residual = 3.542424644e-07, No Iterations 9
smoothSolver:  Solving for Uz, Initial residual = 0.04299960212, Final residual = 6.131222695e-07, No Iterations 8
GAMG:  Solving for p, Initial residual = 0.1688679416, Final residual = 0.0006179265992, No Iterations 4
GAMG:  Solving for p, Initial residual = 0.001452069339, Final residual = 8.26222462e-06, No Iterations 4
GAMG:  Solving for p, Initial residual = 0.0001484353808, Final residual = 1.347315188e-06, No Iterations 3
time step continuity errors : sum local = 5.462261876e-08, global = -8.574423604e-09
GAMG:  Solving for p, Initial residual = 0.107868036, Final residual = 0.0003469632529, No Iterations 4
GAMG:  Solving for p, Initial residual = 0.0007398070304, Final residual = 7.165115538e-06, No Iterations 5
GAMG:  Solving for p, Initial residual = 9.911012471e-05, Final residual = 5.941731683e-08, No Iterations 8
time step continuity errors : sum local = 2.345683673e-09, global = -5.346204298e-10, cumulative = -2.288500029e-09
smoothSolver:  Solving for omega, Initial residual = 0.001822559572, Final residual = 3.7349447e-07, No Iterations 5
smoothSolver:  Solving for k, Initial residual = 0.004559473983, Final residual = 4.620855921e-07, No Iterations 6
bounding k, min: -0.0005734182454 max: 1.05793784 average: 0.03919828291
ExecutionTime = 23.272591 s  ClockTime = 24 s

Courant Number mean: 0.3954727346 max: 17.74027158
Time = 0.019s

smoothSolver:  Solving for Ux, Initial residual = 0.03417582316, Final residual = 3.787145637e-07, No Iterations 7
smoothSolver:  Solving for Uy, Initial residual = 0.05038400701, Final residual = 3.892831647e-07, No Iterations 9
smoothSolver:  Solving for Uz, Initial residual = 0.04096293592, Final residual = 7.247069981e-07, No Iterations 8
GAMG:  Solving for p, Initial residual = 0.1610380637, Final residual = 0.0006646921779, No Iterations 4
GAMG:  Solving for p, Initial residual = 0.001522194313, Final residual = 1.028216004e-05, No Iterations 5
GAMG:  Solving for p, Initial residual = 0.0001877051178, Final residual = 1.612859192e-06, No Iterations 3
time step continuity errors : sum local = 6.959372159e-08, global = -1.421389242e-08
GAMG:  Solving for p, Initial residual = 0.1000830517, Final residual = 0.0003653567787, No Iterations 4
GAMG:  Solving for p, Initial residual = 0.0008439230115, Final residual = 4.049014967e-06, No Iterations 5
GAMG:  Solving for p, Initial residual = 0.0001063697938, Final residual = 9.63932374e-08, No Iterations 6
time step continuity errors : sum local = 4.015758392e-09, global = -6.173153231e-11, cumulative = -2.350231561e-09
smoothSolver:  Solving for omega, Initial residual = 0.001803602258, Final residual = 3.313956525e-07, No Iterations 5
smoothSolver:  Solving for k, Initial residual = 0.0045312114, Final residual = 9.638751017e-07, No Iterations 5
bounding k, min: -0.001499239857 max: 1.013396226 average: 0.04040679596
ExecutionTime = 24.778747 s  ClockTime = 25 s

Courant Number mean: 0.404676247 max: 17.68985548
Time = 0.02s

smoothSolver:  Solving for Ux, Initial residual = 0.03261777303, Final residual = 9.96781841e-07, No Iterations 6
smoothSolver:  Solving for Uy, Initial residual = 0.04839298823, Final residual = 4.020575063e-07, No Iterations 9
smoothSolver:  Solving for Uz, Initial residual = 0.03925089731, Final residual = 7.751066333e-07, No Iterations 8
GAMG:  Solving for p, Initial residual = 0.1547869711, Final residual = 0.0006153131306, No Iterations 4
GAMG:  Solving for p, Initial residual = 0.001323048056, Final residual = 1.032246328e-05, No Iterations 5
GAMG:  Solving for p, Initial residual = 0.0001847978914, Final residual = 1.677795042e-06, No Iterations 3
time step continuity errors : sum local = 7.370099805e-08, global = -1.412422384e-08
GAMG:  Solving for p, Initial residual = 0.09867799944, Final residual = 0.0009739179841, No Iterations 3
GAMG:  Solving for p, Initial residual = 0.001483655129, Final residual = 7.206617382e-06, No Iterations 5
GAMG:  Solving for p, Initial residual = 0.0001152057791, Final residual = 8.298243142e-08, No Iterations 7
time step continuity errors : sum local = 3.441768649e-09, global = -7.280527128e-10, cumulative = -3.078284274e-09
smoothSolver:  Solving for omega, Initial residual = 0.001789489911, Final residual = 3.499806639e-07, No Iterations 5
smoothSolver:  Solving for k, Initial residual = 0.004495514885, Final residual = 3.806001924e-07, No Iterations 6
bounding k, min: -0.004445865426 max: 1.15062879 average: 0.04159328036
ExecutionTime = 26.712318 s  ClockTime = 27 s

volFieldValue tailUpstreamVelocity write:
    volAverage(upstreamTailZone) of magU = 7.45289822

Courant Number mean: 0.413508654 max: 17.51332472
Time = 0.021s

smoothSolver:  Solving for Ux, Initial residual = 0.03087842548, Final residual = 6.965642617e-07, No Iterations 6
smoothSolver:  Solving for Uy, Initial residual = 0.04749929356, Final residual = 4.07554815e-07, No Iterations 9
smoothSolver:  Solving for Uz, Initial residual = 0.03809209991, Final residual = 7.813568442e-07, No Iterations 8
GAMG:  Solving for p, Initial residual = 0.1505553879, Final residual = 0.0006339349919, No Iterations 4
GAMG:  Solving for p, Initial residual = 0.001579861385, Final residual = 9.783700927e-06, No Iterations 5
GAMG:  Solving for p, Initial residual = 0.0002001287697, Final residual = 1.469356134e-06, No Iterations 3
time step continuity errors : sum local = 6.578042416e-08, global = -1.402615903e-08
GAMG:  Solving for p, Initial residual = 0.1027704262, Final residual = 0.0009510756942, No Iterations 3
GAMG:  Solving for p, Initial residual = 0.001857507259, Final residual = 1.473209201e-05, No Iterations 4
GAMG:  Solving for p, Initial residual = 0.0001729688595, Final residual = 5.407101793e-08, No Iterations 7
time step continuity errors : sum local = 2.149336264e-09, global = 4.141417905e-10, cumulative = -2.664142483e-09
smoothSolver:  Solving for omega, Initial residual = 0.001772952967, Final residual = 3.81898838e-07, No Iterations 5
smoothSolver:  Solving for k, Initial residual = 0.004447101068, Final residual = 9.262441646e-07, No Iterations 5
bounding k, min: -0.001408798639 max: 1.431669112 average: 0.0427497536
ExecutionTime = 28.448052 s  ClockTime = 29 s

Courant Number mean: 0.4220678827 max: 17.71615831
Time = 0.022s

smoothSolver:  Solving for Ux, Initial residual = 0.02922481234, Final residual = 4.385749544e-07, No Iterations 6
smoothSolver:  Solving for Uy, Initial residual = 0.04627687388, Final residual = 4.167414154e-07, No Iterations 9
smoothSolver:  Solving for Uz, Initial residual = 0.03628657363, Final residual = 7.232678224e-07, No Iterations 8
GAMG:  Solving for p, Initial residual = 0.1519478789, Final residual = 0.0006612549509, No Iterations 4
GAMG:  Solving for p, Initial residual = 0.002068619984, Final residual = 8.24371097e-06, No Iterations 5
GAMG:  Solving for p, Initial residual = 0.0002056608904, Final residual = 1.595152687e-06, No Iterations 3
time step continuity errors : sum local = 7.248971242e-08, global = -1.48967711e-08
GAMG:  Solving for p, Initial residual = 0.09289479387, Final residual = 0.0003704442857, No Iterations 4
GAMG:  Solving for p, Initial residual = 0.001391482955, Final residual = 1.315440652e-05, No Iterations 4
GAMG:  Solving for p, Initial residual = 0.0001325453183, Final residual = 7.879239945e-08, No Iterations 8
time step continuity errors : sum local = 3.519969467e-09, global = -9.845647579e-10, cumulative = -3.648707241e-09
smoothSolver:  Solving for omega, Initial residual = 0.001779536723, Final residual = 3.044136668e-07, No Iterations 5
smoothSolver:  Solving for k, Initial residual = 0.004350594846, Final residual = 8.59847921e-07, No Iterations 5
bounding k, min: -0.008484357996 max: 1.661734536 average: 0.04389221191
ExecutionTime = 29.796848 s  ClockTime = 30 s

Courant Number mean: 0.4308379209 max: 18.41327306
Time = 0.023s

smoothSolver:  Solving for Ux, Initial residual = 0.02829597492, Final residual = 7.880364261e-07, No Iterations 5
smoothSolver:  Solving for Uy, Initial residual = 0.04502403069, Final residual = 4.214201682e-07, No Iterations 9
smoothSolver:  Solving for Uz, Initial residual = 0.03480006974, Final residual = 5.898484452e-07, No Iterations 8
GAMG:  Solving for p, Initial residual = 0.1445701371, Final residual = 0.00139134194, No Iterations 3
GAMG:  Solving for p, Initial residual = 0.001887423424, Final residual = 1.224166989e-05, No Iterations 4
GAMG:  Solving for p, Initial residual = 0.000288457948, Final residual = 2.121696927e-06, No Iterations 3
time step continuity errors : sum local = 9.105884114e-08, global = -1.352055176e-08
GAMG:  Solving for p, Initial residual = 0.09099720758, Final residual = 0.0008186178704, No Iterations 3
GAMG:  Solving for p, Initial residual = 0.001180371748, Final residual = 8.165149364e-06, No Iterations 4
GAMG:  Solving for p, Initial residual = 0.0001845237255, Final residual = 9.074936206e-08, No Iterations 7
time step continuity errors : sum local = 3.848595578e-09, global = -8.752216697e-10, cumulative = -4.523928911e-09
smoothSolver:  Solving for omega, Initial residual = 0.001775541764, Final residual = 3.376731703e-07, No Iterations 5
smoothSolver:  Solving for k, Initial residual = 0.004287476602, Final residual = 8.968479869e-07, No Iterations 5
bounding k, min: -0.01722908715 max: 1.743573549 average: 0.04498369694
ExecutionTime = 31.117452 s  ClockTime = 32 s

Courant Number mean: 0.4389507848 max: 19.06136732
Time = 0.024s

smoothSolver:  Solving for Ux, Initial residual = 0.02720032631, Final residual = 6.215796432e-07, No Iterations 5
smoothSolver:  Solving for Uy, Initial residual = 0.04359318942, Final residual = 4.16722231e-07, No Iterations 9
smoothSolver:  Solving for Uz, Initial residual = 0.03293851429, Final residual = 9.266880786e-07, No Iterations 7
GAMG:  Solving for p, Initial residual = 0.1379543546, Final residual = 0.00130969774, No Iterations 3
GAMG:  Solving for p, Initial residual = 0.001915395196, Final residual = 1.449326768e-05, No Iterations 4
GAMG:  Solving for p, Initial residual = 0.0003277068646, Final residual = 3.060622835e-06, No Iterations 3
time step continuity errors : sum local = 1.334760535e-07, global = -3.376234408e-08
GAMG:  Solving for p, Initial residual = 0.08844026999, Final residual = 0.0007954229154, No Iterations 3
GAMG:  Solving for p, Initial residual = 0.001272370733, Final residual = 6.1702028e-06, No Iterations 5
GAMG:  Solving for p, Initial residual = 0.0001967258375, Final residual = 8.840102848e-08, No Iterations 8
time step continuity errors : sum local = 3.690738644e-09, global = 1.075251331e-09, cumulative = -3.44867758e-09
smoothSolver:  Solving for omega, Initial residual = 0.001784511428, Final residual = 3.489162034e-07, No Iterations 5
smoothSolver:  Solving for k, Initial residual = 0.004305659491, Final residual = 8.881580741e-07, No Iterations 5
bounding k, min: -0.009528222189 max: 1.6728011 average: 0.04605052924
ExecutionTime = 32.473589 s  ClockTime = 33 s

Courant Number mean: 0.4466229067 max: 19.65834275
Time = 0.025s

smoothSolver:  Solving for Ux, Initial residual = 0.02620807897, Final residual = 5.188554065e-07, No Iterations 5
smoothSolver:  Solving for Uy, Initial residual = 0.04182989162, Final residual = 4.049196283e-07, No Iterations 9
smoothSolver:  Solving for Uz, Initial residual = 0.03141740346, Final residual = 9.138682141e-07, No Iterations 7
GAMG:  Solving for p, Initial residual = 0.1324203738, Final residual = 0.0005626806602, No Iterations 4
GAMG:  Solving for p, Initial residual = 0.001549991958, Final residual = 8.097673576e-06, No Iterations 5
GAMG:  Solving for p, Initial residual = 0.0001765774587, Final residual = 1.3139888e-06, No Iterations 3
time step continuity errors : sum local = 5.81686815e-08, global = -1.321010191e-08
GAMG:  Solving for p, Initial residual = 0.08513033341, Final residual = 0.0003869049894, No Iterations 4
GAMG:  Solving for p, Initial residual = 0.001417983035, Final residual = 1.383401737e-05, No Iterations 4
GAMG:  Solving for p, Initial residual = 0.0001269373405, Final residual = 6.710862087e-08, No Iterations 8
time step continuity errors : sum local = 2.804005019e-09, global = 5.075755629e-10, cumulative = -2.941102017e-09
smoothSolver:  Solving for omega, Initial residual = 0.00178521249, Final residual = 3.473825661e-07, No Iterations 5
smoothSolver:  Solving for k, Initial residual = 0.004350687688, Final residual = 9.342343197e-07, No Iterations 5
bounding k, min: -0.007377913996 max: 1.528412643 average: 0.04706484805
ExecutionTime = 34.307219 s  ClockTime = 35 s

Courant Number mean: 0.4543792131 max: 20.09893672
Time = 0.026s

smoothSolver:  Solving for Ux, Initial residual = 0.02522298697, Final residual = 5.417490732e-07, No Iterations 5
smoothSolver:  Solving for Uy, Initial residual = 0.0397837714, Final residual = 3.813932844e-07, No Iterations 9
smoothSolver:  Solving for Uz, Initial residual = 0.02927671045, Final residual = 8.161170691e-07, No Iterations 7
GAMG:  Solving for p, Initial residual = 0.1264757874, Final residual = 0.0005110774226, No Iterations 4
GAMG:  Solving for p, Initial residual = 0.001371166555, Final residual = 6.377160325e-06, No Iterations 5
GAMG:  Solving for p, Initial residual = 0.0001641098032, Final residual = 1.177490514e-06, No Iterations 3
time step continuity errors : sum local = 5.199688217e-08, global = -1.107864352e-08
GAMG:  Solving for p, Initial residual = 0.08269596138, Final residual = 0.000491979353, No Iterations 4
GAMG:  Solving for p, Initial residual = 0.001599030016, Final residual = 6.40975764e-06, No Iterations 5
GAMG:  Solving for p, Initial residual = 0.000131087675, Final residual = 6.987182731e-08, No Iterations 8
time step continuity errors : sum local = 2.805774322e-09, global = 1.0254239e-09, cumulative = -1.915678117e-09
smoothSolver:  Solving for omega, Initial residual = 0.001789154842, Final residual = 4.073111468e-07, No Iterations 5
smoothSolver:  Solving for k, Initial residual = 0.004428210702, Final residual = 3.693249007e-07, No Iterations 6
bounding k, min: -0.008213178644 max: 1.364656119 average: 0.0480493275
ExecutionTime = 35.653261 s  ClockTime = 36 s

Courant Number mean: 0.4608766758 max: 20.4867923
Time = 0.027s

smoothSolver:  Solving for Ux, Initial residual = 0.02407084944, Final residual = 6.34072111e-07, No Iterations 5
smoothSolver:  Solving for Uy, Initial residual = 0.03701425372, Final residual = 3.468152366e-07, No Iterations 9
smoothSolver:  Solving for Uz, Initial residual = 0.02769710729, Final residual = 4.268580341e-07, No Iterations 8
GAMG:  Solving for p, Initial residual = 0.1217005621, Final residual = 0.0005632949247, No Iterations 4
GAMG:  Solving for p, Initial residual = 0.001696824527, Final residual = 8.39950712e-06, No Iterations 5
GAMG:  Solving for p, Initial residual = 0.0001817808551, Final residual = 1.290140304e-06, No Iterations 3
time step continuity errors : sum local = 5.776866814e-08, global = -1.346277845e-08
GAMG:  Solving for p, Initial residual = 0.07763622923, Final residual = 0.0003116187482, No Iterations 4
GAMG:  Solving for p, Initial residual = 0.0009612879016, Final residual = 5.450278833e-06, No Iterations 5
GAMG:  Solving for p, Initial residual = 0.0001083387658, Final residual = 8.868402194e-08, No Iterations 6
time step continuity errors : sum local = 3.807874329e-09, global = 5.860782219e-11, cumulative = -1.857070294e-09
smoothSolver:  Solving for omega, Initial residual = 0.001788621103, Final residual = 3.336453019e-07, No Iterations 5
smoothSolver:  Solving for k, Initial residual = 0.004511130049, Final residual = 8.296310047e-07, No Iterations 5
bounding k, min: -0.01090468472 max: 1.272521586 average: 0.0489914891
ExecutionTime = 37.108631 s  ClockTime = 38 s

Courant Number mean: 0.4676856045 max: 20.79111099
Time = 0.028s

smoothSolver:  Solving for Ux, Initial residual = 0.02311602251, Final residual = 6.99141477e-07, No Iterations 5
smoothSolver:  Solving for Uy, Initial residual = 0.03460288995, Final residual = 3.213958245e-07, No Iterations 9
smoothSolver:  Solving for Uz, Initial residual = 0.02627050492, Final residual = 4.756312046e-07, No Iterations 8
GAMG:  Solving for p, Initial residual = 0.1113057035, Final residual = 0.0006064775378, No Iterations 4
GAMG:  Solving for p, Initial residual = 0.001648509932, Final residual = 1.317402102e-05, No Iterations 4
GAMG:  Solving for p, Initial residual = 0.000235035885, Final residual = 1.463787052e-06, No Iterations 4
time step continuity errors : sum local = 6.308849729e-08, global = 1.117335629e-08
GAMG:  Solving for p, Initial residual = 0.07157641204, Final residual = 0.0003486993986, No Iterations 4
GAMG:  Solving for p, Initial residual = 0.001035537804, Final residual = 9.342285173e-06, No Iterations 4
GAMG:  Solving for p, Initial residual = 0.000141255297, Final residual = 7.885622086e-08, No Iterations 8
time step continuity errors : sum local = 3.318791916e-09, global = 3.732258032e-10, cumulative = -1.483844491e-09
smoothSolver:  Solving for omega, Initial residual = 0.001791179325, Final residual = 3.281314158e-07, No Iterations 5
smoothSolver:  Solving for k, Initial residual = 0.004587969451, Final residual = 9.262971014e-07, No Iterations 5
bounding k, min: -0.01385915115 max: 1.232443796 average: 0.04991419063
ExecutionTime = 38.43757 s  ClockTime = 39 s

Courant Number mean: 0.4737105882 max: 20.92035715
Time = 0.029s

smoothSolver:  Solving for Ux, Initial residual = 0.02208289294, Final residual = 8.294616694e-07, No Iterations 5
smoothSolver:  Solving for Uy, Initial residual = 0.03126649443, Final residual = 9.267182565e-07, No Iterations 8
smoothSolver:  Solving for Uz, Initial residual = 0.02520513714, Final residual = 4.937331001e-07, No Iterations 8
GAMG:  Solving for p, Initial residual = 0.1049742183, Final residual = 0.000514825226, No Iterations 4
GAMG:  Solving for p, Initial residual = 0.00132504928, Final residual = 1.252713899e-05, No Iterations 5
GAMG:  Solving for p, Initial residual = 0.0002087651161, Final residual = 1.444106985e-06, No Iterations 4
time step continuity errors : sum local = 6.031579124e-08, global = 2.07608641e-08
GAMG:  Solving for p, Initial residual = 0.06966011193, Final residual = 0.0004907911586, No Iterations 4
GAMG:  Solving for p, Initial residual = 0.001288719905, Final residual = 4.415180017e-06, No Iterations 5
GAMG:  Solving for p, Initial residual = 0.0001225622731, Final residual = 6.924315024e-08, No Iterations 8
time step continuity errors : sum local = 2.72910602e-09, global = 9.670938651e-10, cumulative = -5.16750626e-10
smoothSolver:  Solving for omega, Initial residual = 0.001785226458, Final residual = 8.789939767e-07, No Iterations 4
smoothSolver:  Solving for k, Initial residual = 0.004673989457, Final residual = 8.54625331e-07, No Iterations 5
bounding k, min: -0.01772665155 max: 1.209143289 average: 0.05080867234
ExecutionTime = 39.767459 s  ClockTime = 40 s

Courant Number mean: 0.4793657622 max: 20.90395022
Time = 0.03s

smoothSolver:  Solving for Ux, Initial residual = 0.02115773371, Final residual = 8.820337982e-07, No Iterations 5
smoothSolver:  Solving for Uy, Initial residual = 0.02906205394, Final residual = 9.206192048e-07, No Iterations 8
smoothSolver:  Solving for Uz, Initial residual = 0.02419311448, Final residual = 5.089300229e-07, No Iterations 8
GAMG:  Solving for p, Initial residual = 0.1005320149, Final residual = 0.000440972546, No Iterations 4
GAMG:  Solving for p, Initial residual = 0.001435599889, Final residual = 1.319196821e-05, No Iterations 4
GAMG:  Solving for p, Initial residual = 0.0001601425002, Final residual = 1.390986037e-06, No Iterations 3
time step continuity errors : sum local = 5.894804551e-08, global = -3.644597277e-09
GAMG:  Solving for p, Initial residual = 0.06683008877, Final residual = 0.0003540888035, No Iterations 4
GAMG:  Solving for p, Initial residual = 0.0009840068919, Final residual = 5.719050852e-06, No Iterations 6
GAMG:  Solving for p, Initial residual = 9.829780596e-05, Final residual = 3.894791729e-08, No Iterations 7
time step continuity errors : sum local = 1.564018112e-09, global = 3.584389922e-10, cumulative = -1.583116338e-10
smoothSolver:  Solving for omega, Initial residual = 0.001788117114, Final residual = 3.125283852e-07, No Iterations 5
smoothSolver:  Solving for k, Initial residual = 0.00475228128, Final residual = 9.932581464e-07, No Iterations 5
bounding k, min: -0.02133886067 max: 1.159094998 average: 0.05169739689
ExecutionTime = 41.911674 s  ClockTime = 42 s

volFieldValue tailUpstreamVelocity write:
    volAverage(upstreamTailZone) of magU = 7.908783888

Courant Number mean: 0.4852882804 max: 20.98176439
Time = 0.031s

smoothSolver:  Solving for Ux, Initial residual = 0.02044799116, Final residual = 9.279635954e-07, No Iterations 5
smoothSolver:  Solving for Uy, Initial residual = 0.02761191927, Final residual = 9.74828582e-07, No Iterations 8
smoothSolver:  Solving for Uz, Initial residual = 0.0230328968, Final residual = 5.056979713e-07, No Iterations 8
GAMG:  Solving for p, Initial residual = 0.09687695568, Final residual = 0.0003958198655, No Iterations 4
GAMG:  Solving for p, Initial residual = 0.001283011164, Final residual = 1.184428873e-05, No Iterations 4
GAMG:  Solving for p, Initial residual = 0.000150029323, Final residual = 1.286255122e-06, No Iterations 3
time step continuity errors : sum local = 5.334597511e-08, global = -1.522612064e-09
GAMG:  Solving for p, Initial residual = 0.06353360521, Final residual = 0.0006097037294, No Iterations 3
GAMG:  Solving for p, Initial residual = 0.00106006378, Final residual = 8.318436213e-06, No Iterations 5
GAMG:  Solving for p, Initial residual = 0.0002496907151, Final residual = 5.612600553e-08, No Iterations 10
time step continuity errors : sum local = 2.255807573e-09, global = 8.486315746e-10, cumulative = 6.903199408e-10
smoothSolver:  Solving for omega, Initial residual = 0.001798701157, Final residual = 8.711484212e-07, No Iterations 4
smoothSolver:  Solving for k, Initial residual = 0.004821768359, Final residual = 7.625264784e-07, No Iterations 5
bounding k, min: -0.01331832511 max: 1.102941131 average: 0.05257201836
ExecutionTime = 43.585097 s  ClockTime = 44 s

Courant Number mean: 0.4910897898 max: 21.3519153
Time = 0.032s

smoothSolver:  Solving for Ux, Initial residual = 0.01993172569, Final residual = 9.660765057e-07, No Iterations 5
smoothSolver:  Solving for Uy, Initial residual = 0.02628502338, Final residual = 3.307210244e-07, No Iterations 9
smoothSolver:  Solving for Uz, Initial residual = 0.0219323554, Final residual = 4.76236344e-07, No Iterations 8
GAMG:  Solving for p, Initial residual = 0.09261394552, Final residual = 0.0008431752371, No Iterations 3
GAMG:  Solving for p, Initial residual = 0.001467345995, Final residual = 1.069653986e-05, No Iterations 5
GAMG:  Solving for p, Initial residual = 0.000327622641, Final residual = 3.047303666e-06, No Iterations 3
time step continuity errors : sum local = 1.222934142e-07, global = 2.763799553e-08
GAMG:  Solving for p, Initial residual = 0.06106021177, Final residual = 0.0005001853145, No Iterations 3
GAMG:  Solving for p, Initial residual = 0.0008933841024, Final residual = 7.208508184e-06, No Iterations 5
GAMG:  Solving for p, Initial residual = 0.0001852055561, Final residual = 4.238367186e-08, No Iterations 10
time step continuity errors : sum local = 1.676701291e-09, global = 4.32319141e-10, cumulative = 1.122639082e-09
smoothSolver:  Solving for omega, Initial residual = 0.001810912746, Final residual = 9.309017163e-07, No Iterations 4
smoothSolver:  Solving for k, Initial residual = 0.00483097288, Final residual = 8.006333128e-07, No Iterations 5
bounding k, min: -0.03742144517 max: 1.133400906 average: 0.05345746912
ExecutionTime = 44.880314 s  ClockTime = 45 s

Courant Number mean: 0.4966334302 max: 21.65941064
Time = 0.033s

smoothSolver:  Solving for Ux, Initial residual = 0.01947627691, Final residual = 3.996265333e-07, No Iterations 6
smoothSolver:  Solving for Uy, Initial residual = 0.02509115059, Final residual = 3.400078584e-07, No Iterations 9
smoothSolver:  Solving for Uz, Initial residual = 0.02120579864, Final residual = 4.417875711e-07, No Iterations 8
GAMG:  Solving for p, Initial residual = 0.08908951618, Final residual = 0.0007948599352, No Iterations 3
GAMG:  Solving for p, Initial residual = 0.001448387128, Final residual = 1.07625182e-05, No Iterations 5
GAMG:  Solving for p, Initial residual = 0.000321791133, Final residual = 3.09179054e-06, No Iterations 3
time step continuity errors : sum local = 1.235485987e-07, global = 2.639290595e-08
GAMG:  Solving for p, Initial residual = 0.05962152415, Final residual = 0.0004874787112, No Iterations 3
GAMG:  Solving for p, Initial residual = 0.0008999202879, Final residual = 7.80980499e-06, No Iterations 5
GAMG:  Solving for p, Initial residual = 0.0002170240555, Final residual = 5.39766817e-08, No Iterations 10
time step continuity errors : sum local = 2.117061783e-09, global = 6.394494167e-10, cumulative = 1.762088499e-09
smoothSolver:  Solving for omega, Initial residual = 0.00182946641, Final residual = 9.955735193e-07, No Iterations 4
smoothSolver:  Solving for k, Initial residual = 0.00488679618, Final residual = 8.329420365e-07, No Iterations 5
bounding k, min: -0.02349629088 max: 1.116298031 average: 0.05434180331
ExecutionTime = 46.199824 s  ClockTime = 47 s

Courant Number mean: 0.5021700213 max: 21.93713944
Time = 0.034s

smoothSolver:  Solving for Ux, Initial residual = 0.01905292317, Final residual = 4.198851081e-07, No Iterations 6
smoothSolver:  Solving for Uy, Initial residual = 0.02420272827, Final residual = 3.426265076e-07, No Iterations 9
smoothSolver:  Solving for Uz, Initial residual = 0.02064844541, Final residual = 4.440938862e-07, No Iterations 8
GAMG:  Solving for p, Initial residual = 0.08650180894, Final residual = 0.0007245275976, No Iterations 3
GAMG:  Solving for p, Initial residual = 0.001364355764, Final residual = 1.043244928e-05, No Iterations 5
GAMG:  Solving for p, Initial residual = 0.0002898157386, Final residual = 2.889477467e-06, No Iterations 3
time step continuity errors : sum local = 1.144977027e-07, global = 2.450483251e-08
GAMG:  Solving for p, Initial residual = 0.05592553572, Final residual = 0.0004368456625, No Iterations 3
GAMG:  Solving for p, Initial residual = 0.0008512441851, Final residual = 5.804095526e-06, No Iterations 5
GAMG:  Solving for p, Initial residual = 0.0001718135926, Final residual = 9.011105842e-08, No Iterations 9
time step continuity errors : sum local = 3.565601604e-09, global = 4.362366331e-10, cumulative = 2.198325132e-09
smoothSolver:  Solving for omega, Initial residual = 0.001853150706, Final residual = 3.407216749e-07, No Iterations 5
smoothSolver:  Solving for k, Initial residual = 0.004993638926, Final residual = 3.53166181e-07, No Iterations 6
bounding k, min: -0.02055876825 max: 1.088229996 average: 0.05524566755
ExecutionTime = 47.465495 s  ClockTime = 48 s

Courant Number mean: 0.5076536067 max: 22.28077197
Time = 0.035s

smoothSolver:  Solving for Ux, Initial residual = 0.01874390737, Final residual = 4.369795335e-07, No Iterations 6
smoothSolver:  Solving for Uy, Initial residual = 0.02358577711, Final residual = 3.58115715e-07, No Iterations 9
smoothSolver:  Solving for Uz, Initial residual = 0.02023838082, Final residual = 4.173982918e-07, No Iterations 8
GAMG:  Solving for p, Initial residual = 0.08452708216, Final residual = 0.0006645239969, No Iterations 3
GAMG:  Solving for p, Initial residual = 0.001302353365, Final residual = 9.905503334e-06, No Iterations 5
GAMG:  Solving for p, Initial residual = 0.0002720722653, Final residual = 1.526564055e-06, No Iterations 4
time step continuity errors : sum local = 6.025711699e-08, global = 1.966230973e-08
GAMG:  Solving for p, Initial residual = 0.05528693857, Final residual = 0.000400006924, No Iterations 3
GAMG:  Solving for p, Initial residual = 0.0008034299455, Final residual = 4.920700247e-06, No Iterations 5
GAMG:  Solving for p, Initial residual = 0.0001775436388, Final residual = 6.99553593e-08, No Iterations 8
time step continuity errors : sum local = 2.72940932e-09, global = 7.567508459e-10, cumulative = 2.955075978e-09
smoothSolver:  Solving for omega, Initial residual = 0.001881699072, Final residual = 3.209214594e-07, No Iterations 5
smoothSolver:  Solving for k, Initial residual = 0.00515680077, Final residual = 3.542090632e-07, No Iterations 6
bounding k, min: -0.01605665684 max: 1.157276173 average: 0.05618847901
ExecutionTime = 48.532118 s  ClockTime = 49 s

Courant Number mean: 0.5129063823 max: 22.88603208
Time = 0.036s

smoothSolver:  Solving for Ux, Initial residual = 0.01846168784, Final residual = 4.235756272e-07, No Iterations 6
smoothSolver:  Solving for Uy, Initial residual = 0.02328455832, Final residual = 3.696377045e-07, No Iterations 9
smoothSolver:  Solving for Uz, Initial residual = 0.02009830047, Final residual = 9.474485731e-07, No Iterations 7
GAMG:  Solving for p, Initial residual = 0.08346957643, Final residual = 0.0006581093573, No Iterations 3
GAMG:  Solving for p, Initial residual = 0.001333235491, Final residual = 9.199094871e-06, No Iterations 5
GAMG:  Solving for p, Initial residual = 0.0002633142701, Final residual = 2.622397984e-06, No Iterations 3
time step continuity errors : sum local = 1.04009457e-07, global = 2.093373051e-08
GAMG:  Solving for p, Initial residual = 0.05494062443, Final residual = 0.0003999774193, No Iterations 3
GAMG:  Solving for p, Initial residual = 0.0008402502939, Final residual = 5.864616642e-06, No Iterations 5
GAMG:  Solving for p, Initial residual = 0.000172208907, Final residual = 9.506500442e-08, No Iterations 9
time step continuity errors : sum local = 3.732415395e-09, global = 1.612570904e-10, cumulative = 3.116333068e-09
smoothSolver:  Solving for omega, Initial residual = 0.001901607664, Final residual = 9.012549869e-07, No Iterations 4
smoothSolver:  Solving for k, Initial residual = 0.005300063247, Final residual = 9.444637371e-07, No Iterations 5
bounding k, min: -0.01110548239 max: 1.213079608 average: 0.05717105136
ExecutionTime = 49.564517 s  ClockTime = 50 s

Courant Number mean: 0.5180527329 max: 23.41461592
Time = 0.037s

smoothSolver:  Solving for Ux, Initial residual = 0.01820367889, Final residual = 9.782246202e-07, No Iterations 5
smoothSolver:  Solving for Uy, Initial residual = 0.02296818899, Final residual = 3.860294812e-07, No Iterations 9
smoothSolver:  Solving for Uz, Initial residual = 0.02030354169, Final residual = 8.078790405e-07, No Iterations 7
GAMG:  Solving for p, Initial residual = 0.08259557068, Final residual = 0.0006423508221, No Iterations 3
GAMG:  Solving for p, Initial residual = 0.001331799977, Final residual = 9.795164878e-06, No Iterations 5
GAMG:  Solving for p, Initial residual = 0.000259156268, Final residual = 1.458642388e-06, No Iterations 4
time step continuity errors : sum local = 5.781311107e-08, global = 1.881576081e-08
GAMG:  Solving for p, Initial residual = 0.05502600531, Final residual = 0.0004052999682, No Iterations 3
GAMG:  Solving for p, Initial residual = 0.0008995302621, Final residual = 8.709385452e-06, No Iterations 5
GAMG:  Solving for p, Initial residual = 0.0001892175579, Final residual = 7.763998024e-08, No Iterations 9
time step continuity errors : sum local = 3.013495952e-09, global = 9.640623957e-11, cumulative = 3.212739308e-09
smoothSolver:  Solving for omega, Initial residual = 0.001928245575, Final residual = 8.985127118e-07, No Iterations 4
smoothSolver:  Solving for k, Initial residual = 0.005476844259, Final residual = 9.819389497e-07, No Iterations 5
bounding k, min: -0.00195035897 max: 1.256787823 average: 0.05820552777
ExecutionTime = 50.637449 s  ClockTime = 51 s

Courant Number mean: 0.5229662465 max: 23.92611207
Time = 0.038s

smoothSolver:  Solving for Ux, Initial residual = 0.01798300367, Final residual = 8.798424975e-07, No Iterations 5
smoothSolver:  Solving for Uy, Initial residual = 0.02272157897, Final residual = 3.910376157e-07, No Iterations 9
smoothSolver:  Solving for Uz, Initial residual = 0.02030727699, Final residual = 7.939204825e-07, No Iterations 7
GAMG:  Solving for p, Initial residual = 0.0819642933, Final residual = 0.0006443130201, No Iterations 3
GAMG:  Solving for p, Initial residual = 0.001361053229, Final residual = 7.924721119e-06, No Iterations 5
GAMG:  Solving for p, Initial residual = 0.0002414422971, Final residual = 2.184842373e-06, No Iterations 3
time step continuity errors : sum local = 8.670819553e-08, global = 1.557502599e-08
GAMG:  Solving for p, Initial residual = 0.05337322792, Final residual = 0.000388544, No Iterations 3
GAMG:  Solving for p, Initial residual = 0.000866079387, Final residual = 5.241664888e-06, No Iterations 5
GAMG:  Solving for p, Initial residual = 0.0001680044269, Final residual = 9.038592999e-08, No Iterations 8
time step continuity errors : sum local = 3.550666744e-09, global = 1.340176514e-09, cumulative = 4.552915822e-09
smoothSolver:  Solving for omega, Initial residual = 0.001945258456, Final residual = 9.860790501e-07, No Iterations 4
smoothSolver:  Solving for k, Initial residual = 0.005641963238, Final residual = 3.737422504e-07, No Iterations 6
bounding k, min: -0.007731708519 max: 1.32202235 average: 0.05931860659
ExecutionTime = 51.650536 s  ClockTime = 52 s

Courant Number mean: 0.5277619978 max: 24.57277756
Time = 0.039s

smoothSolver:  Solving for Ux, Initial residual = 0.01777916935, Final residual = 9.319944277e-07, No Iterations 5
smoothSolver:  Solving for Uy, Initial residual = 0.02246845874, Final residual = 4.081680815e-07, No Iterations 9
smoothSolver:  Solving for Uz, Initial residual = 0.020095889, Final residual = 8.335534246e-07, No Iterations 7
GAMG:  Solving for p, Initial residual = 0.08040963898, Final residual = 0.0006279315077, No Iterations 3
GAMG:  Solving for p, Initial residual = 0.00136773038, Final residual = 8.032429823e-06, No Iterations 5
GAMG:  Solving for p, Initial residual = 0.0002644877278, Final residual = 2.240108075e-06, No Iterations 3
time step continuity errors : sum local = 8.805792218e-08, global = 1.738180244e-08
GAMG:  Solving for p, Initial residual = 0.05311910347, Final residual = 0.0003844584862, No Iterations 3
GAMG:  Solving for p, Initial residual = 0.0008845967241, Final residual = 6.534844642e-06, No Iterations 5
GAMG:  Solving for p, Initial residual = 0.0001766049007, Final residual = 7.438796886e-08, No Iterations 8
time step continuity errors : sum local = 2.886913061e-09, global = 7.07703107e-10, cumulative = 5.260618929e-09
smoothSolver:  Solving for omega, Initial residual = 0.001957589859, Final residual = 3.126091582e-07, No Iterations 5
smoothSolver:  Solving for k, Initial residual = 0.005809740525, Final residual = 3.419636031e-07, No Iterations 6
bounding k, min: -0.007789185452 max: 1.286800041 average: 0.06050727155
ExecutionTime = 52.660091 s  ClockTime = 53 s

Courant Number mean: 0.5323559315 max: 25.1060349
Time = 0.04s

smoothSolver:  Solving for Ux, Initial residual = 0.01758312773, Final residual = 4.151258481e-07, No Iterations 6
smoothSolver:  Solving for Uy, Initial residual = 0.02237099155, Final residual = 4.086123119e-07, No Iterations 9
smoothSolver:  Solving for Uz, Initial residual = 0.01989294321, Final residual = 8.48606494e-07, No Iterations 7
GAMG:  Solving for p, Initial residual = 0.07920725224, Final residual = 0.0006214936427, No Iterations 3
GAMG:  Solving for p, Initial residual = 0.00137878861, Final residual = 9.443306491e-06, No Iterations 5
GAMG:  Solving for p, Initial residual = 0.0002703339707, Final residual = 1.860730598e-06, No Iterations 3
time step continuity errors : sum local = 7.260422938e-08, global = 2.423687475e-09
GAMG:  Solving for p, Initial residual = 0.05216123821, Final residual = 0.0003633922183, No Iterations 3
GAMG:  Solving for p, Initial residual = 0.0008343774906, Final residual = 6.14882155e-06, No Iterations 5
GAMG:  Solving for p, Initial residual = 0.0001585107915, Final residual = 6.608256932e-08, No Iterations 8
time step continuity errors : sum local = 2.571241558e-09, global = 6.151263024e-10, cumulative = 5.875745231e-09
smoothSolver:  Solving for omega, Initial residual = 0.001975703789, Final residual = 3.611054201e-07, No Iterations 5
smoothSolver:  Solving for k, Initial residual = 0.005925047796, Final residual = 3.670055223e-07, No Iterations 6
ExecutionTime = 54.22945 s  ClockTime = 55 s

volFieldValue tailUpstreamVelocity write:
    volAverage(upstreamTailZone) of magU = 8.590946678

Courant Number mean: 0.5367554565 max: 25.73355948
Time = 0.041s

smoothSolver:  Solving for Ux, Initial residual = 0.01739399097, Final residual = 4.351015738e-07, No Iterations 6
smoothSolver:  Solving for Uy, Initial residual = 0.02239895882, Final residual = 4.159376091e-07, No Iterations 9
smoothSolver:  Solving for Uz, Initial residual = 0.01989075704, Final residual = 7.803850482e-07, No Iterations 7
GAMG:  Solving for p, Initial residual = 0.07779908816, Final residual = 0.0006232344081, No Iterations 3
GAMG:  Solving for p, Initial residual = 0.001388770125, Final residual = 1.266915364e-05, No Iterations 5
GAMG:  Solving for p, Initial residual = 0.0002840514937, Final residual = 1.571509957e-06, No Iterations 4
time step continuity errors : sum local = 6.081631161e-08, global = 2.225386885e-08
GAMG:  Solving for p, Initial residual = 0.05517245002, Final residual = 0.0005474445136, No Iterations 3
GAMG:  Solving for p, Initial residual = 0.001242805554, Final residual = 1.056565205e-05, No Iterations 6
GAMG:  Solving for p, Initial residual = 0.0001947302117, Final residual = 4.476261687e-08, No Iterations 10
time step continuity errors : sum local = 1.665188037e-09, global = 4.128292765e-10, cumulative = 6.288574508e-09
smoothSolver:  Solving for omega, Initial residual = 0.001979359471, Final residual = 9.887399421e-07, No Iterations 4
smoothSolver:  Solving for k, Initial residual = 0.006030739962, Final residual = 3.757998172e-07, No Iterations 6
ExecutionTime = 55.448108 s  ClockTime = 56 s

Courant Number mean: 0.5409977502 max: 26.96513889
Time = 0.042s

smoothSolver:  Solving for Ux, Initial residual = 0.01711258304, Final residual = 8.807612855e-07, No Iterations 5
smoothSolver:  Solving for Uy, Initial residual = 0.02258715328, Final residual = 4.114753809e-07, No Iterations 9
smoothSolver:  Solving for Uz, Initial residual = 0.01999638757, Final residual = 7.71077255e-07, No Iterations 7
GAMG:  Solving for p, Initial residual = 0.07929993406, Final residual = 0.0006314534188, No Iterations 3
GAMG:  Solving for p, Initial residual = 0.001394144254, Final residual = 8.188608013e-06, No Iterations 5
GAMG:  Solving for p, Initial residual = 0.0002522601379, Final residual = 2.38585993e-06, No Iterations 3
time step continuity errors : sum local = 9.248029208e-08, global = 1.973967732e-08
GAMG:  Solving for p, Initial residual = 0.05225750126, Final residual = 0.0003747231907, No Iterations 3
GAMG:  Solving for p, Initial residual = 0.000857304958, Final residual = 7.562076319e-06, No Iterations 5
GAMG:  Solving for p, Initial residual = 0.0001710404979, Final residual = 9.348884553e-08, No Iterations 8
time step continuity errors : sum local = 3.57337286e-09, global = 9.086490281e-10, cumulative = 7.197223536e-09
smoothSolver:  Solving for omega, Initial residual = 0.001988176894, Final residual = 3.484265094e-07, No Iterations 5
smoothSolver:  Solving for k, Initial residual = 0.006108839512, Final residual = 4.410707473e-07, No Iterations 6
ExecutionTime = 56.436712 s  ClockTime = 57 s

Courant Number mean: 0.5451532627 max: 28.05606429
Time = 0.043s

smoothSolver:  Solving for Ux, Initial residual = 0.01696393558, Final residual = 9.050737567e-07, No Iterations 5
smoothSolver:  Solving for Uy, Initial residual = 0.02261258648, Final residual = 4.016670422e-07, No Iterations 9
smoothSolver:  Solving for Uz, Initial residual = 0.02002045925, Final residual = 8.356477565e-07, No Iterations 7
GAMG:  Solving for p, Initial residual = 0.07877184723, Final residual = 0.0006203034805, No Iterations 3
GAMG:  Solving for p, Initial residual = 0.001416694461, Final residual = 1.244143059e-05, No Iterations 5
GAMG:  Solving for p, Initial residual = 0.0002663275222, Final residual = 1.374281111e-06, No Iterations 4
time step continuity errors : sum local = 5.171386314e-08, global = 1.986562436e-08
GAMG:  Solving for p, Initial residual = 0.05326849249, Final residual = 0.0004661429106, No Iterations 3
GAMG:  Solving for p, Initial residual = 0.001021711163, Final residual = 4.267645696e-06, No Iterations 7
GAMG:  Solving for p, Initial residual = 0.0001841619743, Final residual = 9.843270565e-08, No Iterations 8
time step continuity errors : sum local = 3.628574063e-09, global = 1.36608521e-09, cumulative = 8.563308746e-09
smoothSolver:  Solving for omega, Initial residual = 0.001992950395, Final residual = 3.808554078e-07, No Iterations 5
smoothSolver:  Solving for k, Initial residual = 0.006191959578, Final residual = 3.60259887e-07, No Iterations 6
ExecutionTime = 57.450942 s  ClockTime = 58 s

Courant Number mean: 0.5491529753 max: 28.78219896
Time = 0.044s

smoothSolver:  Solving for Ux, Initial residual = 0.01679422027, Final residual = 9.987421851e-07, No Iterations 5
smoothSolver:  Solving for Uy, Initial residual = 0.02292154183, Final residual = 4.07421011e-07, No Iterations 9
smoothSolver:  Solving for Uz, Initial residual = 0.02005680963, Final residual = 8.632357831e-07, No Iterations 7
GAMG:  Solving for p, Initial residual = 0.07944977022, Final residual = 0.0006233083499, No Iterations 3
GAMG:  Solving for p, Initial residual = 0.001423380446, Final residual = 1.251562616e-05, No Iterations 5
GAMG:  Solving for p, Initial residual = 0.0002524794799, Final residual = 1.576811794e-06, No Iterations 4
time step continuity errors : sum local = 5.86806038e-08, global = 2.246113533e-08
GAMG:  Solving for p, Initial residual = 0.0530257945, Final residual = 0.0003767671535, No Iterations 3
GAMG:  Solving for p, Initial residual = 0.0008840292188, Final residual = 8.438127009e-06, No Iterations 5
GAMG:  Solving for p, Initial residual = 0.0001657209429, Final residual = 9.387171337e-08, No Iterations 7
time step continuity errors : sum local = 3.468500913e-09, global = -1.845487343e-10, cumulative = 8.378760011e-09
smoothSolver:  Solving for omega, Initial residual = 0.001997705001, Final residual = 3.703452535e-07, No Iterations 5
smoothSolver:  Solving for k, Initial residual = 0.006283794926, Final residual = 5.738091677e-07, No Iterations 6
ExecutionTime = 58.601265 s  ClockTime = 59 s

Courant Number mean: 0.5531364352 max: 29.24681264
Time = 0.045s

smoothSolver:  Solving for Ux, Initial residual = 0.01668394863, Final residual = 3.94092255e-07, No Iterations 6
smoothSolver:  Solving for Uy, Initial residual = 0.02309438511, Final residual = 4.004038834e-07, No Iterations 9
smoothSolver:  Solving for Uz, Initial residual = 0.02012206995, Final residual = 8.247617891e-07, No Iterations 7
GAMG:  Solving for p, Initial residual = 0.07962244821, Final residual = 0.0006304318117, No Iterations 3
GAMG:  Solving for p, Initial residual = 0.001467438256, Final residual = 1.318633586e-05, No Iterations 5
GAMG:  Solving for p, Initial residual = 0.0002752621439, Final residual = 1.930834242e-06, No Iterations 3
time step continuity errors : sum local = 7.033126144e-08, global = 1.651241391e-08
GAMG:  Solving for p, Initial residual = 0.05341608595, Final residual = 0.0005217800842, No Iterations 3
GAMG:  Solving for p, Initial residual = 0.001120925119, Final residual = 5.469573275e-06, No Iterations 7
GAMG:  Solving for p, Initial residual = 0.0001967713091, Final residual = 9.610451668e-08, No Iterations 9
time step continuity errors : sum local = 3.421064814e-09, global = 2.900831252e-10, cumulative = 8.668843136e-09
smoothSolver:  Solving for omega, Initial residual = 0.001996363972, Final residual = 9.918954406e-07, No Iterations 4
smoothSolver:  Solving for k, Initial residual = 0.006352635295, Final residual = 4.142310388e-07, No Iterations 6
ExecutionTime = 59.618051 s  ClockTime = 60 s

Courant Number mean: 0.5570286894 max: 29.45616188
Time = 0.046s

smoothSolver:  Solving for Ux, Initial residual = 0.01659968498, Final residual = 4.100308294e-07, No Iterations 6
smoothSolver:  Solving for Uy, Initial residual = 0.02322037431, Final residual = 3.703811258e-07, No Iterations 9
smoothSolver:  Solving for Uz, Initial residual = 0.02018659196, Final residual = 7.796631232e-07, No Iterations 7
GAMG:  Solving for p, Initial residual = 0.0794684571, Final residual = 0.0006260988067, No Iterations 3
GAMG:  Solving for p, Initial residual = 0.001487812684, Final residual = 9.856268884e-06, No Iterations 5
GAMG:  Solving for p, Initial residual = 0.0002391359731, Final residual = 1.16343747e-06, No Iterations 4
time step continuity errors : sum local = 4.21113747e-08, global = 1.656896123e-08
GAMG:  Solving for p, Initial residual = 0.05390579045, Final residual = 0.0004259763545, No Iterations 3
GAMG:  Solving for p, Initial residual = 0.0009763443444, Final residual = 9.733031428e-06, No Iterations 6
GAMG:  Solving for p, Initial residual = 0.0001735097836, Final residual = 4.438918395e-08, No Iterations 10
time step continuity errors : sum local = 1.565895714e-09, global = 3.673936452e-10, cumulative = 9.036236782e-09
smoothSolver:  Solving for omega, Initial residual = 0.001997061617, Final residual = 3.472093797e-07, No Iterations 5
smoothSolver:  Solving for k, Initial residual = 0.006438363358, Final residual = 4.97190378e-07, No Iterations 6
ExecutionTime = 60.685131 s  ClockTime = 61 s

Courant Number mean: 0.5609146733 max: 29.33132603
Time = 0.047s

smoothSolver:  Solving for Ux, Initial residual = 0.01656255008, Final residual = 4.300336806e-07, No Iterations 6
smoothSolver:  Solving for Uy, Initial residual = 0.02351530698, Final residual = 3.716992106e-07, No Iterations 9
smoothSolver:  Solving for Uz, Initial residual = 0.02032093684, Final residual = 7.553378869e-07, No Iterations 7
GAMG:  Solving for p, Initial residual = 0.07888714566, Final residual = 0.0006184111719, No Iterations 3
GAMG:  Solving for p, Initial residual = 0.001551371818, Final residual = 1.509403637e-05, No Iterations 4
GAMG:  Solving for p, Initial residual = 0.0002657313642, Final residual = 2.449891013e-06, No Iterations 3
time step continuity errors : sum local = 8.65823443e-08, global = 1.869875191e-08
GAMG:  Solving for p, Initial residual = 0.05350967405, Final residual = 0.0004185445376, No Iterations 3
GAMG:  Solving for p, Initial residual = 0.0009801175105, Final residual = 9.499704089e-06, No Iterations 6
GAMG:  Solving for p, Initial residual = 0.0001702743245, Final residual = 3.798302623e-08, No Iterations 10
time step continuity errors : sum local = 1.324189131e-09, global = 3.000868436e-10, cumulative = 9.336323625e-09
smoothSolver:  Solving for omega, Initial residual = 0.002003211342, Final residual = 3.088310885e-07, No Iterations 5
smoothSolver:  Solving for k, Initial residual = 0.006509347675, Final residual = 3.521177094e-07, No Iterations 6
ExecutionTime = 61.703802 s  ClockTime = 62 s

Courant Number mean: 0.5647221347 max: 28.89153728
Time = 0.048s

smoothSolver:  Solving for Ux, Initial residual = 0.0165513085, Final residual = 9.380022375e-07, No Iterations 5
smoothSolver:  Solving for Uy, Initial residual = 0.02400274774, Final residual = 3.845678668e-07, No Iterations 9
smoothSolver:  Solving for Uz, Initial residual = 0.02035713041, Final residual = 7.254757886e-07, No Iterations 7
GAMG:  Solving for p, Initial residual = 0.07843197475, Final residual = 0.000618683839, No Iterations 3
GAMG:  Solving for p, Initial residual = 0.001559873762, Final residual = 1.507211761e-05, No Iterations 4
GAMG:  Solving for p, Initial residual = 0.0002642912886, Final residual = 2.48225136e-06, No Iterations 3
time step continuity errors : sum local = 8.663186226e-08, global = 1.925920508e-08
GAMG:  Solving for p, Initial residual = 0.0522329568, Final residual = 0.0003844897051, No Iterations 3
GAMG:  Solving for p, Initial residual = 0.0009795208155, Final residual = 8.535837894e-06, No Iterations 4
GAMG:  Solving for p, Initial residual = 0.0001591050474, Final residual = 9.81136276e-08, No Iterations 7
time step continuity errors : sum local = 3.423001017e-09, global = 8.719671134e-10, cumulative = 1.020829074e-08
smoothSolver:  Solving for omega, Initial residual = 0.002008991757, Final residual = 3.507035818e-07, No Iterations 5
smoothSolver:  Solving for k, Initial residual = 0.006570705964, Final residual = 4.182018096e-07, No Iterations 6
ExecutionTime = 62.624875 s  ClockTime = 63 s

Courant Number mean: 0.5685298325 max: 28.31789687
Time = 0.049s

smoothSolver:  Solving for Ux, Initial residual = 0.01654929583, Final residual = 8.077323267e-07, No Iterations 5
smoothSolver:  Solving for Uy, Initial residual = 0.02442977812, Final residual = 3.581107222e-07, No Iterations 9
smoothSolver:  Solving for Uz, Initial residual = 0.02048619373, Final residual = 8.16197318e-07, No Iterations 7
GAMG:  Solving for p, Initial residual = 0.07828280221, Final residual = 0.0006527888555, No Iterations 3
GAMG:  Solving for p, Initial residual = 0.00160465798, Final residual = 1.464024878e-05, No Iterations 5
GAMG:  Solving for p, Initial residual = 0.0002737458904, Final residual = 1.807955604e-06, No Iterations 4
time step continuity errors : sum local = 6.146948564e-08, global = 1.185553333e-08
GAMG:  Solving for p, Initial residual = 0.0524886705, Final residual = 0.0003984841145, No Iterations 3
GAMG:  Solving for p, Initial residual = 0.0009877260141, Final residual = 8.188732377e-06, No Iterations 5
GAMG:  Solving for p, Initial residual = 0.0001614775674, Final residual = 6.494627353e-08, No Iterations 9
time step continuity errors : sum local = 2.212056727e-09, global = 4.668251404e-10, cumulative = 1.067511588e-08
smoothSolver:  Solving for omega, Initial residual = 0.00200967809, Final residual = 3.549438115e-07, No Iterations 5
smoothSolver:  Solving for k, Initial residual = 0.006626214554, Final residual = 3.861468108e-07, No Iterations 6
ExecutionTime = 63.679473 s  ClockTime = 64 s

Courant Number mean: 0.5722650197 max: 27.72265639
Time = 0.05s

smoothSolver:  Solving for Ux, Initial residual = 0.01652830345, Final residual = 9.933855144e-07, No Iterations 5
smoothSolver:  Solving for Uy, Initial residual = 0.02474871609, Final residual = 3.444729414e-07, No Iterations 9
smoothSolver:  Solving for Uz, Initial residual = 0.02054860878, Final residual = 8.156376822e-07, No Iterations 7
GAMG:  Solving for p, Initial residual = 0.07822627432, Final residual = 0.0006737737655, No Iterations 3
GAMG:  Solving for p, Initial residual = 0.001658873152, Final residual = 1.390767997e-05, No Iterations 5
GAMG:  Solving for p, Initial residual = 0.0002820171118, Final residual = 1.73063191e-06, No Iterations 4
time step continuity errors : sum local = 5.808656081e-08, global = 1.13425507e-08
[...]
time step continuity errors : sum local = 4.171291582e-10, global = 5.043775132e-11, cumulative = 2.338233379e-08
smoothSolver:  Solving for omega, Initial residual = 0.9698798531, Final residual = 9.615152704e-07, No Iterations 9
smoothSolver:  Solving for k, Initial residual = 0.005576273298, Final residual = 7.454399761e-07, No Iterations 6
bounding k, min: -2.558590937 max: 141.8450254 average: 2.958594641
ExecutionTime = 357.733025 s  ClockTime = 358 s

Courant Number mean: 0.8743875434 max: 25.65341453
Time = 0.289s

smoothSolver:  Solving for Ux, Initial residual = 0.003894832433, Final residual = 8.580306874e-07, No Iterations 6
smoothSolver:  Solving for Uy, Initial residual = 0.006222499478, Final residual = 6.650679465e-07, No Iterations 7
smoothSolver:  Solving for Uz, Initial residual = 0.005198333361, Final residual = 6.057798776e-07, No Iterations 8
GAMG:  Solving for p, Initial residual = 0.06264567512, Final residual = 0.0005216948206, No Iterations 3
GAMG:  Solving for p, Initial residual = 0.0047300403, Final residual = 1.855184962e-05, No Iterations 4
GAMG:  Solving for p, Initial residual = 0.0005009514587, Final residual = 4.978279484e-06, No Iterations 3
time step continuity errors : sum local = 3.465257402e-08, global = 5.982309754e-10
GAMG:  Solving for p, Initial residual = 0.0392350962, Final residual = 0.000295234491, No Iterations 3
GAMG:  Solving for p, Initial residual = 0.002651370291, Final residual = 1.064348506e-05, No Iterations 4
GAMG:  Solving for p, Initial residual = 0.0002827667261, Final residual = 5.280243701e-08, No Iterations 7
time step continuity errors : sum local = 3.661250736e-10, global = 6.136003297e-11, cumulative = 2.344369383e-08
smoothSolver:  Solving for omega, Initial residual = 0.9884410614, Final residual = 9.657212728e-07, No Iterations 5
smoothSolver:  Solving for k, Initial residual = 0.005646963258, Final residual = 5.292196649e-07, No Iterations 6
bounding k, min: -5.499078088 max: 144.7271178 average: 2.972592243
ExecutionTime = 358.78972 s  ClockTime = 360 s

Courant Number mean: 0.8744659635 max: 25.65345091
Time = 0.29s

smoothSolver:  Solving for Ux, Initial residual = 0.003805782755, Final residual = 7.476442002e-07, No Iterations 6
smoothSolver:  Solving for Uy, Initial residual = 0.00599282343, Final residual = 5.722567322e-07, No Iterations 7
smoothSolver:  Solving for Uz, Initial residual = 0.005023521781, Final residual = 9.41277189e-07, No Iterations 7
GAMG:  Solving for p, Initial residual = 0.06021727426, Final residual = 0.0005423072052, No Iterations 3
GAMG:  Solving for p, Initial residual = 0.00491846906, Final residual = 2.129796676e-05, No Iterations 4
GAMG:  Solving for p, Initial residual = 0.0005371598781, Final residual = 1.757599294e-06, No Iterations 4
time step continuity errors : sum local = 1.216832529e-08, global = -8.39673633e-10
GAMG:  Solving for p, Initial residual = 0.03761209834, Final residual = 0.0003083438222, No Iterations 3
GAMG:  Solving for p, Initial residual = 0.0027579595, Final residual = 1.195420501e-05, No Iterations 4
GAMG:  Solving for p, Initial residual = 0.0003028317567, Final residual = 4.943572016e-08, No Iterations 7
time step continuity errors : sum local = 3.415181601e-10, global = -1.484019419e-11, cumulative = 2.342885363e-08
smoothSolver:  Solving for omega, Initial residual = 0.989173887, Final residual = 4.378843912e-07, No Iterations 3
smoothSolver:  Solving for k, Initial residual = 0.005544252841, Final residual = 5.9212237e-07, No Iterations 6
bounding k, min: -6.333371225 max: 147.5129559 average: 2.995643081
ExecutionTime = 360.387151 s  ClockTime = 361 s

volFieldValue tailUpstreamVelocity write:
    volAverage(upstreamTailZone) of magU = 36.0828786

Courant Number mean: 0.8745744199 max: 25.64280169
Time = 0.291s

smoothSolver:  Solving for Ux, Initial residual = 0.003806758846, Final residual = 8.020047134e-07, No Iterations 6
smoothSolver:  Solving for Uy, Initial residual = 0.006063968111, Final residual = 5.738427476e-07, No Iterations 7
smoothSolver:  Solving for Uz, Initial residual = 0.005097188118, Final residual = 5.972333865e-07, No Iterations 8
GAMG:  Solving for p, Initial residual = 0.06058042545, Final residual = 0.0005744248085, No Iterations 3
GAMG:  Solving for p, Initial residual = 0.005146838044, Final residual = 2.363540439e-05, No Iterations 4
GAMG:  Solving for p, Initial residual = 0.0005525841267, Final residual = 1.93203134e-06, No Iterations 4
time step continuity errors : sum local = 1.335616837e-08, global = -1.413182297e-09
GAMG:  Solving for p, Initial residual = 0.03803796996, Final residual = 0.0003287288862, No Iterations 3
GAMG:  Solving for p, Initial residual = 0.002891147019, Final residual = 1.318014376e-05, No Iterations 4
GAMG:  Solving for p, Initial residual = 0.0003121067099, Final residual = 5.691757042e-08, No Iterations 7
time step continuity errors : sum local = 3.924449486e-10, global = -4.684333718e-11, cumulative = 2.33820103e-08
smoothSolver:  Solving for omega, Initial residual = 0.08425091869, Final residual = 9.601794726e-07, No Iterations 11
smoothSolver:  Solving for k, Initial residual = 0.005583147028, Final residual = 5.876842067e-07, No Iterations 6
bounding k, min: -4.75442894 max: 149.4896478 average: 3.030252543
ExecutionTime = 361.806273 s  ClockTime = 363 s

Courant Number mean: 0.8746969974 max: 25.62333092
Time = 0.292s

smoothSolver:  Solving for Ux, Initial residual = 0.003742826073, Final residual = 7.650696309e-07, No Iterations 6
smoothSolver:  Solving for Uy, Initial residual = 0.005805638112, Final residual = 5.072823001e-07, No Iterations 7
smoothSolver:  Solving for Uz, Initial residual = 0.004831729587, Final residual = 8.99961124e-07, No Iterations 7
GAMG:  Solving for p, Initial residual = 0.05901929663, Final residual = 0.0002092810835, No Iterations 4
GAMG:  Solving for p, Initial residual = 0.005233528919, Final residual = 4.30954335e-05, No Iterations 3
GAMG:  Solving for p, Initial residual = 0.0004754502728, Final residual = 2.207054838e-06, No Iterations 4
time step continuity errors : sum local = 1.513388163e-08, global = -1.68830038e-09
GAMG:  Solving for p, Initial residual = 0.0371938306, Final residual = 0.0003408563498, No Iterations 3
GAMG:  Solving for p, Initial residual = 0.003002460757, Final residual = 1.383969397e-05, No Iterations 4
GAMG:  Solving for p, Initial residual = 0.0003147270081, Final residual = 5.840377533e-08, No Iterations 7
time step continuity errors : sum local = 3.994927866e-10, global = -5.000141815e-11, cumulative = 2.333200888e-08
smoothSolver:  Solving for omega, Initial residual = 0.5996632644, Final residual = 9.259395155e-07, No Iterations 11
smoothSolver:  Solving for k, Initial residual = 0.005377213831, Final residual = 9.226489945e-07, No Iterations 6
bounding k, min: -3.743217491 max: 150.6756224 average: 3.072501909
ExecutionTime = 362.933693 s  ClockTime = 364 s

Courant Number mean: 0.8748492742 max: 25.64255999
Time = 0.293s

smoothSolver:  Solving for Ux, Initial residual = 0.003801513831, Final residual = 7.752756455e-07, No Iterations 7
smoothSolver:  Solving for Uy, Initial residual = 0.005862711392, Final residual = 9.303933337e-07, No Iterations 7
smoothSolver:  Solving for Uz, Initial residual = 0.004908699372, Final residual = 7.166854689e-07, No Iterations 8
GAMG:  Solving for p, Initial residual = 0.06046523001, Final residual = 0.0002216739285, No Iterations 4
GAMG:  Solving for p, Initial residual = 0.005365541914, Final residual = 4.969823207e-05, No Iterations 3
GAMG:  Solving for p, Initial residual = 0.0004927852818, Final residual = 3.606008786e-06, No Iterations 4
time step continuity errors : sum local = 2.468642981e-08, global = -2.051146018e-09
GAMG:  Solving for p, Initial residual = 0.03842391206, Final residual = 0.0003484435384, No Iterations 3
GAMG:  Solving for p, Initial residual = 0.003070678767, Final residual = 1.511634221e-05, No Iterations 4
GAMG:  Solving for p, Initial residual = 0.0003257431979, Final residual = 9.003558179e-08, No Iterations 7
time step continuity errors : sum local = 6.157518983e-10, global = -6.069061192e-11, cumulative = 2.327131827e-08
smoothSolver:  Solving for omega, Initial residual = 0.9720945132, Final residual = 4.042101271e-07, No Iterations 5
smoothSolver:  Solving for k, Initial residual = 0.00536583739, Final residual = 8.253506257e-07, No Iterations 6
bounding k, min: -4.576442566 max: 151.092163 average: 3.111796748
ExecutionTime = 364.025894 s  ClockTime = 365 s

Courant Number mean: 0.8750052617 max: 25.69709392
Time = 0.294s

smoothSolver:  Solving for Ux, Initial residual = 0.003796981914, Final residual = 5.84558325e-07, No Iterations 7
smoothSolver:  Solving for Uy, Initial residual = 0.005717122412, Final residual = 6.643885966e-07, No Iterations 7
smoothSolver:  Solving for Uz, Initial residual = 0.004746415282, Final residual = 7.802515525e-07, No Iterations 7
GAMG:  Solving for p, Initial residual = 0.0589915242, Final residual = 0.0002374268296, No Iterations 4
GAMG:  Solving for p, Initial residual = 0.00520256803, Final residual = 4.397453208e-05, No Iterations 3
GAMG:  Solving for p, Initial residual = 0.000475846809, Final residual = 2.25004099e-06, No Iterations 4
time step continuity errors : sum local = 1.535074881e-08, global = -4.969294339e-10
GAMG:  Solving for p, Initial residual = 0.03733065254, Final residual = 0.0003511839153, No Iterations 3
GAMG:  Solving for p, Initial residual = 0.002970902081, Final residual = 1.32081777e-05, No Iterations 4
GAMG:  Solving for p, Initial residual = 0.0003150607209, Final residual = 4.954034649e-08, No Iterations 7
time step continuity errors : sum local = 3.378827614e-10, global = -6.616801956e-12, cumulative = 2.326470146e-08
smoothSolver:  Solving for omega, Initial residual = 0.3600019869, Final residual = 4.792536328e-07, No Iterations 7
smoothSolver:  Solving for k, Initial residual = 0.005221365266, Final residual = 7.957688586e-07, No Iterations 6
bounding k, min: -2.408873972 max: 150.8324262 average: 3.138047317
ExecutionTime = 365.041029 s  ClockTime = 366 s

Courant Number mean: 0.8751796036 max: 25.7717909
Time = 0.295s

smoothSolver:  Solving for Ux, Initial residual = 0.003797097611, Final residual = 6.29000438e-07, No Iterations 7
smoothSolver:  Solving for Uy, Initial residual = 0.005719807782, Final residual = 8.157162687e-07, No Iterations 7
smoothSolver:  Solving for Uz, Initial residual = 0.004781483388, Final residual = 7.024176648e-07, No Iterations 7
GAMG:  Solving for p, Initial residual = 0.05976339876, Final residual = 0.0002430066026, No Iterations 4
GAMG:  Solving for p, Initial residual = 0.004949956269, Final residual = 4.353976266e-05, No Iterations 3
GAMG:  Solving for p, Initial residual = 0.0004659289005, Final residual = 2.225351491e-06, No Iterations 4
time step continuity errors : sum local = 1.524984498e-08, global = -1.60684164e-10
GAMG:  Solving for p, Initial residual = 0.03790781654, Final residual = 0.0003510054872, No Iterations 3
GAMG:  Solving for p, Initial residual = 0.002845001304, Final residual = 1.307553581e-05, No Iterations 4
GAMG:  Solving for p, Initial residual = 0.0003086922574, Final residual = 5.20960114e-08, No Iterations 7
time step continuity errors : sum local = 3.551360645e-10, global = -2.661954053e-12, cumulative = 2.326203951e-08
smoothSolver:  Solving for omega, Initial residual = 0.2308743399, Final residual = 6.166462537e-07, No Iterations 6
smoothSolver:  Solving for k, Initial residual = 0.005154637681, Final residual = 7.804440807e-07, No Iterations 6
bounding k, min: -2.039867502 max: 150.0478402 average: 3.147879042
ExecutionTime = 366.058993 s  ClockTime = 367 s

Courant Number mean: 0.8753537666 max: 25.85547213
Time = 0.296s

smoothSolver:  Solving for Ux, Initial residual = 0.003772163327, Final residual = 5.969710674e-07, No Iterations 7
smoothSolver:  Solving for Uy, Initial residual = 0.005737291561, Final residual = 9.447445223e-07, No Iterations 7
smoothSolver:  Solving for Uz, Initial residual = 0.004727515171, Final residual = 9.159742398e-07, No Iterations 7
GAMG:  Solving for p, Initial residual = 0.06024987878, Final residual = 0.0002375626535, No Iterations 4
GAMG:  Solving for p, Initial residual = 0.004711623026, Final residual = 4.498716387e-05, No Iterations 3
GAMG:  Solving for p, Initial residual = 0.0004589727029, Final residual = 2.173339599e-06, No Iterations 4
time step continuity errors : sum local = 1.493569093e-08, global = 8.632438945e-11
GAMG:  Solving for p, Initial residual = 0.03819514915, Final residual = 0.0003317782423, No Iterations 3
GAMG:  Solving for p, Initial residual = 0.002706012108, Final residual = 1.350055513e-05, No Iterations 4
GAMG:  Solving for p, Initial residual = 0.0002945699983, Final residual = 5.286496795e-08, No Iterations 7
time step continuity errors : sum local = 3.610231589e-10, global = -1.415607181e-11, cumulative = 2.324788344e-08
smoothSolver:  Solving for omega, Initial residual = 0.01297746539, Final residual = 3.741920401e-07, No Iterations 6
smoothSolver:  Solving for k, Initial residual = 0.005149535343, Final residual = 6.063409946e-07, No Iterations 7
bounding k, min: -2.852811838 max: 148.9313651 average: 3.14501932
ExecutionTime = 367.419867 s  ClockTime = 368 s

Courant Number mean: 0.8755638641 max: 25.936353
Time = 0.297s

smoothSolver:  Solving for Ux, Initial residual = 0.003766112531, Final residual = 5.262191446e-07, No Iterations 7
smoothSolver:  Solving for Uy, Initial residual = 0.005739203675, Final residual = 9.253703733e-07, No Iterations 7
smoothSolver:  Solving for Uz, Initial residual = 0.004796584604, Final residual = 6.629644182e-07, No Iterations 8
GAMG:  Solving for p, Initial residual = 0.05990845277, Final residual = 0.0005374523351, No Iterations 3
GAMG:  Solving for p, Initial residual = 0.004835137451, Final residual = 2.331927854e-05, No Iterations 4
GAMG:  Solving for p, Initial residual = 0.00051009348, Final residual = 2.013682158e-06, No Iterations 4
time step continuity errors : sum local = 1.394259167e-08, global = 1.80250497e-09
GAMG:  Solving for p, Initial residual = 0.03792221479, Final residual = 0.0002953642799, No Iterations 3
GAMG:  Solving for p, Initial residual = 0.002701950718, Final residual = 1.274730262e-05, No Iterations 4
GAMG:  Solving for p, Initial residual = 0.0002795026652, Final residual = 4.72808676e-08, No Iterations 7
time step continuity errors : sum local = 3.258459319e-10, global = 4.535489645e-11, cumulative = 2.329323834e-08
smoothSolver:  Solving for omega, Initial residual = 0.002641565271, Final residual = 8.721858629e-07, No Iterations 5
smoothSolver:  Solving for k, Initial residual = 0.005190679987, Final residual = 5.761294569e-07, No Iterations 7
bounding k, min: -2.47696046 max: 147.5808852 average: 3.134287405
ExecutionTime = 368.529532 s  ClockTime = 369 s

Courant Number mean: 0.8757720802 max: 26.0070443
Time = 0.298s

smoothSolver:  Solving for Ux, Initial residual = 0.003680938982, Final residual = 9.881169236e-07, No Iterations 6
smoothSolver:  Solving for Uy, Initial residual = 0.005686590969, Final residual = 7.97015135e-07, No Iterations 7
smoothSolver:  Solving for Uz, Initial residual = 0.004708370099, Final residual = 7.38796485e-07, No Iterations 8
GAMG:  Solving for p, Initial residual = 0.05739237271, Final residual = 0.0004620083525, No Iterations 3
GAMG:  Solving for p, Initial residual = 0.004897278978, Final residual = 2.076356436e-05, No Iterations 4
GAMG:  Solving for p, Initial residual = 0.0005013068153, Final residual = 2.095493145e-06, No Iterations 4
time step continuity errors : sum local = 1.458695486e-08, global = 2.577879183e-09
GAMG:  Solving for p, Initial residual = 0.03623760697, Final residual = 0.0002603976455, No Iterations 3
GAMG:  Solving for p, Initial residual = 0.002735769595, Final residual = 1.097357383e-05, No Iterations 4
GAMG:  Solving for p, Initial residual = 0.0002784052757, Final residual = 5.737615316e-08, No Iterations 7
time step continuity errors : sum local = 3.9724586e-10, global = 6.609612869e-11, cumulative = 2.335933446e-08
smoothSolver:  Solving for omega, Initial residual = 0.002137926859, Final residual = 9.480963442e-07, No Iterations 5
smoothSolver:  Solving for k, Initial residual = 0.005182143763, Final residual = 5.681158478e-07, No Iterations 7
bounding k, min: -3.26103603 max: 145.9207269 average: 3.116441769
ExecutionTime = 369.929744 s  ClockTime = 371 s

Courant Number mean: 0.8759852236 max: 26.06481873
Time = 0.299s

smoothSolver:  Solving for Ux, Initial residual = 0.00362744805, Final residual = 9.629966496e-07, No Iterations 6
smoothSolver:  Solving for Uy, Initial residual = 0.005595933162, Final residual = 6.473409442e-07, No Iterations 7
smoothSolver:  Solving for Uz, Initial residual = 0.004731321523, Final residual = 7.797999054e-07, No Iterations 8
GAMG:  Solving for p, Initial residual = 0.05585518372, Final residual = 0.0004673380782, No Iterations 3
GAMG:  Solving for p, Initial residual = 0.005080872353, Final residual = 2.293696164e-05, No Iterations 4
GAMG:  Solving for p, Initial residual = 0.0005285118117, Final residual = 2.194164026e-06, No Iterations 4
time step continuity errors : sum local = 1.534526428e-08, global = 2.752250505e-09
GAMG:  Solving for p, Initial residual = 0.03519913104, Final residual = 0.0002801146967, No Iterations 3
GAMG:  Solving for p, Initial residual = 0.002847258042, Final residual = 1.260409213e-05, No Iterations 4
GAMG:  Solving for p, Initial residual = 0.0002960509209, Final residual = 6.748238642e-08, No Iterations 7
time step continuity errors : sum local = 4.708725962e-10, global = 6.962631334e-11, cumulative = 2.342896078e-08
smoothSolver:  Solving for omega, Initial residual = 0.002596220656, Final residual = 8.81773081e-07, No Iterations 10
smoothSolver:  Solving for k, Initial residual = 0.005188264065, Final residual = 8.143211516e-07, No Iterations 6
bounding k, min: -2.874484185 max: 144.2278006 average: 3.094529803
ExecutionTime = 371.332928 s  ClockTime = 372 s

Courant Number mean: 0.8761797416 max: 26.10372786
Time = 0.3s

smoothSolver:  Solving for Ux, Initial residual = 0.00357463432, Final residual = 9.04050174e-07, No Iterations 6
smoothSolver:  Solving for Uy, Initial residual = 0.005506610988, Final residual = 5.302621017e-07, No Iterations 7
smoothSolver:  Solving for Uz, Initial residual = 0.004665687927, Final residual = 7.781364526e-07, No Iterations 8
GAMG:  Solving for p, Initial residual = 0.05407705619, Final residual = 0.0005287021051, No Iterations 3
GAMG:  Solving for p, Initial residual = 0.005358152712, Final residual = 2.440779747e-05, No Iterations 4
GAMG:  Solving for p, Initial residual = 0.000552547318, Final residual = 2.159798813e-06, No Iterations 4
time step continuity errors : sum local = 1.510360355e-08, global = 2.541518627e-09
GAMG:  Solving for p, Initial residual = 0.03391856087, Final residual = 0.0002998576551, No Iterations 3
GAMG:  Solving for p, Initial residual = 0.003012314585, Final residual = 1.344720678e-05, No Iterations 4
GAMG:  Solving for p, Initial residual = 0.000309979145, Final residual = 7.067762138e-08, No Iterations 7
time step continuity errors : sum local = 4.920711731e-10, global = 7.155548414e-11, cumulative = 2.350051626e-08
smoothSolver:  Solving for omega, Initial residual = 0.02037496455, Final residual = 4.919922558e-07, No Iterations 6
smoothSolver:  Solving for k, Initial residual = 0.005173036154, Final residual = 6.380463013e-07, No Iterations 6
bounding k, min: -3.160574172 max: 142.3019749 average: 3.071001062
ExecutionTime = 373.110039 s  ClockTime = 374 s

volFieldValue tailUpstreamVelocity write:
    volAverage(upstreamTailZone) of magU = 36.26053199

End

Finalising parallel run
