/*---------------------------------------------------------------------------*\
  =========                 |
  \\      /  F ield         | OpenFOAM: The Open Source CFD Toolbox
   \\    /   O peration     | Website:  https://openfoam.org
    \\  /    A nd           | Version:  13
     \\/     M anipulation  |
\*---------------------------------------------------------------------------*/
Build  : 13-cde978a97c93
Exec   : surfaceFeatures
Date   : Dec 24 2025
Time   : 10:42:45
Host   : "Laptopawelke"
PID    : 10640
I/O    : uncollated
Case   : /home/a1922573/ADOT/AUDBF-ADOT/Final_ADOT_program/Aerodynamics_Simulation
nProcs : 1
sigFpe : Enabling floating point exception trapping (FOAM_SIGFPE).
fileModificationChecking : Monitoring run-time modified files using timeStampMaster (fileModificationSkew 10)
allowSystemOperations : Allowing user-supplied system call operations

// * * * * * * * * * * * * * * * * * * * * * * * * * * * * * * * * * * * * * //
Create time

Reading "surfaceFeaturesDict"

Surface            : "aircraftModel.obj"


Feature line extraction is only valid on closed manifold surfaces.
Statistics:
Triangles    : 90560
Vertices     : 45282
Bounding Box : (-0.832848 -0.46505 -0.0959352) (0.852095 0.464947 0.0979072)


Constructing feature set from included angle 3.141592654
Selecting edges purely based on geometric tests: no
Removing all non-manifold edges (edges with > 2 connected faces) unless they cross multiple regions
Removing all open edges (edges with 1 connected face)

Initial feature set:
    feature points : 45282
    feature edges  : 135840
    of which
        region edges   : 0
        external edges : 80700
        internal edges : 55140


Final feature set:
points      : 45282
edges       : 135840
boundingBox : (-0.832848 -0.46505 -0.0959352) (0.852095 0.464947 0.0979072)
point classification :
    convex feature points          :      432
    concave feature points         :       90
    mixed feature points           :    44760
    other (non-feature) points     :        0
edge classification :
    external (convex angle) edges  :    21109
    internal (concave angle) edges :     6088
    flat region edges              :   108643
    open edges                     :        0
    multiply connected edges       :        0

Writing extendedFeatureEdgeMesh to "constant/extendedFeatureEdgeMesh/aircraftModel.extendedFeatureEdgeMesh"

Writing extendedEdgeMesh components to "/home/a1922573/ADOT/AUDBF-ADOT/Final_ADOT_program/Aerodynamics_Simulation/constant/extendedFeatureEdgeMesh/aircraftModel"

Writing featureEdgeMesh to "constant/geometry/aircraftModel.eMesh"

Surface            : "horizontalStabiliser.obj"


Feature line extraction is only valid on closed manifold surfaces.
Statistics:
Triangles    : 21896
Vertices     : 10950
Bounding Box : (-0.86189 -0.30946 -0.0366505) (-0.596659 0.309475 0.046432)


Constructing feature set from included angle 3.141592654
Selecting edges purely based on geometric tests: no
Removing all non-manifold edges (edges with > 2 connected faces) unless they cross multiple regions
Removing all open edges (edges with 1 connected face)

Initial feature set:
    feature points : 10950
    feature edges  : 32844
    of which
        region edges   : 0
        external edges : 18724
        internal edges : 14120


Final feature set:
points      : 10950
edges       : 32844
boundingBox : (-0.86189 -0.30946 -0.0366505) (-0.596659 0.309475 0.046432)
point classification :
    convex feature points          :       49
    concave feature points         :        0
    mixed feature points           :    10901
    other (non-feature) points     :        0
edge classification :
    external (convex angle) edges  :     4053
    internal (concave angle) edges :     1425
    flat region edges              :    27366
    open edges                     :        0
    multiply connected edges       :        0

Writing extendedFeatureEdgeMesh to "constant/extendedFeatureEdgeMesh/horizontalStabiliser.extendedFeatureEdgeMesh"

Writing extendedEdgeMesh components to "/home/a1922573/ADOT/AUDBF-ADOT/Final_ADOT_program/Aerodynamics_Simulation/constant/extendedFeatureEdgeMesh/horizontalStabiliser"

Writing featureEdgeMesh to "constant/geometry/horizontalStabiliser.eMesh"

ExecutionTime = 1.087464 s  ClockTime = 1 s

End

