/*---------------------------------------------------------------------------*\
  =========                 |
  \\      /  F ield         | OpenFOAM: The Open Source CFD Toolbox
   \\    /   O peration     | Website:  https://openfoam.org
    \\  /    A nd           | Version:  13
     \\/     M anipulation  |
\*---------------------------------------------------------------------------*/
Build  : 13-cde978a97c93
Exec   : surfaceFeatures
Date   : Dec 29 2025
Time   : 13:04:02
Host   : "Laptopawelke"
PID    : 3035
I/O    : uncollated
Case   : /home/a1922573/ADOT/AUDBF-ADOT/Final_ADOT_program/Aerodynamics_Simulation
nProcs : 1
sigFpe : Enabling floating point exception trapping (FOAM_SIGFPE).
fileModificationChecking : Monitoring run-time modified files using timeStampMaster (fileModificationSkew 10)
allowSystemOperations : Allowing user-supplied system call operations

// * * * * * * * * * * * * * * * * * * * * * * * * * * * * * * * * * * * * * //
Create time

Reading "surfaceFeaturesDict"

Surface            : "aircraftModel.obj"


Feature line extraction is only valid on closed manifold surfaces.
Statistics:
Triangles    : 58228
Vertices     : 29116
Bounding Box : (-0.80312 -0.477416 -0.07063) (0.735421 0.477352 0.074169)


Constructing feature set from included angle 3.141592654
Selecting edges purely based on geometric tests: no
Removing all non-manifold edges (edges with > 2 connected faces) unless they cross multiple regions
Removing all open edges (edges with 1 connected face)

Initial feature set:
    feature points : 29116
    feature edges  : 87342
    of which
        region edges   : 0
        external edges : 55519
        internal edges : 31823


Final feature set:
points      : 29116
edges       : 87342
boundingBox : (-0.80312 -0.477416 -0.07063) (0.735421 0.477352 0.074169)
point classification :
    convex feature points          :      362
    concave feature points         :       25
    mixed feature points           :    28729
    other (non-feature) points     :        0
edge classification :
    external (convex angle) edges  :    17996
    internal (concave angle) edges :     3166
    flat region edges              :    66180
    open edges                     :        0
    multiply connected edges       :        0

Writing extendedFeatureEdgeMesh to "constant/extendedFeatureEdgeMesh/aircraftModel.extendedFeatureEdgeMesh"

Writing extendedEdgeMesh components to "/home/a1922573/ADOT/AUDBF-ADOT/Final_ADOT_program/Aerodynamics_Simulation/constant/extendedFeatureEdgeMesh/aircraftModel"

Writing featureEdgeMesh to "constant/geometry/aircraftModel.eMesh"

Surface            : "horizontalStabiliser.obj"


Feature line extraction is only valid on closed manifold surfaces.
Statistics:
Triangles    : 18436
Vertices     : 9220
Bounding Box : (-0.833353 -0.289806 -0.0357622) (-0.594893 0.305386 0.0416861)


Constructing feature set from included angle 3.141592654
Selecting edges purely based on geometric tests: no
Removing all non-manifold edges (edges with > 2 connected faces) unless they cross multiple regions
Removing all open edges (edges with 1 connected face)

Initial feature set:
    feature points : 9220
    feature edges  : 27654
    of which
        region edges   : 0
        external edges : 14641
        internal edges : 13013


Final feature set:
points      : 9220
edges       : 27654
boundingBox : (-0.833353 -0.289806 -0.0357622) (-0.594893 0.305386 0.0416861)
point classification :
    convex feature points          :       55
    concave feature points         :        0
    mixed feature points           :     9165
    other (non-feature) points     :        0
edge classification :
    external (convex angle) edges  :     3389
    internal (concave angle) edges :     1371
    flat region edges              :    22894
    open edges                     :        0
    multiply connected edges       :        0

Writing extendedFeatureEdgeMesh to "constant/extendedFeatureEdgeMesh/horizontalStabiliser.extendedFeatureEdgeMesh"

Writing extendedEdgeMesh components to "/home/a1922573/ADOT/AUDBF-ADOT/Final_ADOT_program/Aerodynamics_Simulation/constant/extendedFeatureEdgeMesh/horizontalStabiliser"

Writing featureEdgeMesh to "constant/geometry/horizontalStabiliser.eMesh"

ExecutionTime = 0.62551 s  ClockTime = 1 s

End

