/*---------------------------------------------------------------------------*\
  =========                 |
  \\      /  F ield         | OpenFOAM: The Open Source CFD Toolbox
   \\    /   O peration     | Website:  https://openfoam.org
    \\  /    A nd           | Version:  13
     \\/     M anipulation  |
\*---------------------------------------------------------------------------*/
Build  : 13
Exec   : createPatch
Date   : Jun 21 2026
Time   : 07:38:08
Host   : "ip-10-255-0-245"
PID    : 4842
I/O    : uncollated
Case   : /home/ubuntu/AUDBF-ADOT/Final_ADOT_program/Aerodynamics_Simulation_1
nProcs : 1
sigFpe : Enabling floating point exception trapping (FOAM_SIGFPE).
fileModificationChecking : Monitoring run-time modified files using timeStampMaster (fileModificationSkew 10)
allowSystemOperations : Allowing user-supplied system call operations

// * * * * * * * * * * * * * * * * * * * * * * * * * * * * * * * * * * * * * //
Create time

Create mesh for time = 0

Reading "createPatchDict"

Adding new patch horizontalStabiliser as patch 6 from 
{
    type            wall;
}


Read 0 faces from faceZone horizStabiliserFaceZone

Doing topology modification to order faces.

Removing patches with no faces in them.

No patches removed.
Writing repatched mesh to 0

End

