/*---------------------------------------------------------------------------*\
  =========                 |
  \\      /  F ield         | OpenFOAM: The Open Source CFD Toolbox
   \\    /   O peration     | Website:  https://openfoam.org
    \\  /    A nd           | Version:  13
     \\/     M anipulation  |
\*---------------------------------------------------------------------------*/
Build  : 13
Exec   : reconstructPar -constant
Date   : Jun 21 2026
Time   : 07:38:08
Host   : "ip-10-255-0-245"
PID    : 4840
I/O    : uncollated
Case   : /home/ubuntu/AUDBF-ADOT/Final_ADOT_program/Aerodynamics_Simulation_1
nProcs : 1
sigFpe : Enabling floating point exception trapping (FOAM_SIGFPE).
fileModificationChecking : Monitoring run-time modified files using timeStampMaster (fileModificationSkew 10)
allowSystemOperations : Allowing user-supplied system call operations

// * * * * * * * * * * * * * * * * * * * * * * * * * * * * * * * * * * * * * //
Create time

Time = constant

Reconstructing FV fields

    (no FV fields)

Reconstructing point fields

    (no point fields)

End

